
OS:Version,
  {8e47c782-b438-400d-981f-57e4bed9022b}, !- Handle
  3.10.0;                                 !- Version Identifier

OS:SimulationControl,
  {0b9d26ff-40d1-4311-9aae-e5e64e112bd7}, !- Handle
  ,                                       !- Do Zone Sizing Calculation
  ,                                       !- Do System Sizing Calculation
  ,                                       !- Do Plant Sizing Calculation
  No;                                     !- Run Simulation for Sizing Periods

OS:Timestep,
  {f1907f3e-938a-4e66-ae29-f9d3fe156e8e}, !- Handle
  1;                                      !- Number of Timesteps per Hour

OS:ShadowCalculation,
  {ab421217-6200-441a-b0fa-2d893ee998d2}, !- Handle
  PolygonClipping,                        !- Shading Calculation Method
  ,                                       !- Shading Calculation Update Frequency Method
  20,                                     !- Shading Calculation Update Frequency
  200,                                    !- Maximum Figures in Shadow Overlap Calculations
  ,                                       !- Polygon Clipping Algorithm
  512,                                    !- Pixel Counting Resolution
  ,                                       !- Sky Diffuse Modeling Algorithm
  No,                                     !- Output External Shading Calculation Results
  No,                                     !- Disable Self-Shading Within Shading Zone Groups
  No;                                     !- Disable Self-Shading From Shading Zone Groups to Other Zones

OS:SurfaceConvectionAlgorithm:Outside,
  {99e9ab0c-2b5a-4cb9-9cf7-3c4ff64f909e}, !- Handle
  DOE-2;                                  !- Algorithm

OS:SurfaceConvectionAlgorithm:Inside,
  {c3805613-f713-4492-bad7-28f2290e232a}, !- Handle
  TARP;                                   !- Algorithm

OS:ZoneCapacitanceMultiplier:ResearchSpecial,
  {1c28f61e-730c-4953-b413-148cc16acb7f}, !- Handle
  7,                                      !- Temperature Capacity Multiplier
  15,                                     !- Humidity Capacity Multiplier
  ;                                       !- Carbon Dioxide Capacity Multiplier

OS:ConvergenceLimits,
  {713ea0e6-017c-47c8-8e6a-51604a8d388b}, !- Handle
  0;                                      !- Minimum System Timestep {minutes}

OS:RunPeriod,
  {455ad966-fd10-452d-80e0-5b769bd82298}, !- Handle
  Run Period 1,                           !- Name
  1,                                      !- Begin Month
  1,                                      !- Begin Day of Month
  12,                                     !- End Month
  31,                                     !- End Day of Month
  ,                                       !- Use Weather File Holidays and Special Days
  ,                                       !- Use Weather File Daylight Saving Period
  ,                                       !- Apply Weekend Holiday Rule
  ,                                       !- Use Weather File Rain Indicators
  ,                                       !- Use Weather File Snow Indicators
  ;                                       !- Number of Times Runperiod to be Repeated

OS:PerformancePrecisionTradeoffs,
  {4b52e339-7587-43d9-aa9a-3eea94f10aeb}, !- Handle
  ,                                       !- Use Coil Direct Solutions
  CarrollMRT;                             !- Zone Radiant Exchange Algorithm

OS:WeatherFile,
  {b79eabef-0958-481a-82dc-0e9542281565}, !- Handle
  Buffalo Niagara Intl Ap,                !- City
  NY,                                     !- State Province Region
  USA,                                    !- Country
  TMY3,                                   !- Data Source
  725280,                                 !- WMO Number
  42.93,                                  !- Latitude {deg}
  -78.73,                                 !- Longitude {deg}
  -5,                                     !- Time Zone {hr}
  215,                                    !- Elevation {m}
  /Users/nmoore/github/urbanopt-example-geojson-project/example_project/weather/USA_NY_Buffalo-Greater.Buffalo.Intl.AP.725280_TMY3.epw, !- Url
  6B50E0FF,                               !- Checksum
  ,                                       !- Start Date Actual Year
  Sunday;                                 !- Start Day of Week

OS:YearDescription,
  {c4dfaa56-9dce-462d-b555-12f2ad410d11}, !- Handle
  2007,                                   !- Calendar Year
  ,                                       !- Day of Week for Start Day
  ;                                       !- Is Leap Year

OS:Site,
  {0f528c12-992d-47b9-bb84-f036d2c4e44d}, !- Handle
  Buffalo Niagara Intl Ap_NY,             !- Name
  42.93,                                  !- Latitude {deg}
  -78.73,                                 !- Longitude {deg}
  -5,                                     !- Time Zone {hr}
  215,                                    !- Elevation {m}
  Suburbs,                                !- Terrain
  Yes;                                    !- Keep Site Location Information

OS:RunPeriodControl:DaylightSavingTime,
  {a7686ac1-37c7-41ba-bd52-cc156a967d59}, !- Handle
  Mar 12,                                 !- Start Date
  Nov 5;                                  !- End Date

OS:Site:GroundTemperature:Shallow,
  {852d46e2-65be-4383-9af4-b6c1575477d0}, !- Handle
  4.30207395723828,                       !- January Surface Ground Temperature {C}
  2.29327249652502,                       !- February Surface Ground Temperature {C}
  2.13240047156047,                       !- March Surface Ground Temperature {C}
  3.08567940719286,                       !- April Surface Ground Temperature {C}
  6.91256312497526,                       !- May Surface Ground Temperature {C}
  10.7216195949507,                       !- June Surface Ground Temperature {C}
  14.0238679822574,                       !- July Surface Ground Temperature {C}
  16.1157611184724,                       !- August Surface Ground Temperature {C}
  16.2934789303462,                       !- September Surface Ground Temperature {C}
  14.5920754632847,                       !- October Surface Ground Temperature {C}
  11.374036348653,                        !- November Surface Ground Temperature {C}
  7.68182621661674;                       !- December Surface Ground Temperature {C}

OS:ThermalZone,
  {41e44326-a1f7-4858-9d4e-a615bd578443}, !- Handle
  conditioned space,                      !- Name
  1,                                      !- Multiplier
  ,                                       !- Ceiling Height {m}
  692.06373070848,                        !- Volume {m3}
  ,                                       !- Floor Area {m2}
  ,                                       !- Zone Inside Convection Algorithm
  ,                                       !- Zone Outside Convection Algorithm
  ,                                       !- Zone Conditioning Equipment List Name
  {48ca02d1-7253-4029-aa94-80faa984555d}, !- Zone Air Inlet Port List
  {739f0d55-ca8d-448c-9b13-c23e4403d2c8}, !- Zone Air Exhaust Port List
  {87169845-da2e-43b0-b19e-f11c3df8869a}, !- Zone Air Node Name
  {1c9b3005-6743-4a2c-b94d-8b12361ecb8f}, !- Zone Return Air Port List
  ,                                       !- Primary Daylighting Control Name
  ,                                       !- Fraction of Zone Controlled by Primary Daylighting Control
  ,                                       !- Secondary Daylighting Control Name
  ,                                       !- Fraction of Zone Controlled by Secondary Daylighting Control
  ,                                       !- Illuminance Map Name
  ,                                       !- Group Rendering Name
  {7f6e276a-e4e7-41db-9c63-2c9f365ea977}, !- Thermostat Name
  No;                                     !- Use Ideal Air Loads

OS:Node,
  {aa461300-7336-45c4-b086-61e4aa7713c0}, !- Handle
  Node 1,                                 !- Name
  {87169845-da2e-43b0-b19e-f11c3df8869a}, !- Inlet Port
  ;                                       !- Outlet Port

OS:Connection,
  {87169845-da2e-43b0-b19e-f11c3df8869a}, !- Handle
  {41e44326-a1f7-4858-9d4e-a615bd578443}, !- Source Object
  11,                                     !- Outlet Port
  {aa461300-7336-45c4-b086-61e4aa7713c0}, !- Target Object
  2;                                      !- Inlet Port

OS:PortList,
  {48ca02d1-7253-4029-aa94-80faa984555d}, !- Handle
  {41e44326-a1f7-4858-9d4e-a615bd578443}, !- HVAC Component
  {c680dd73-415d-41ff-9884-aeb18d6530d3}; !- Port 1

OS:PortList,
  {739f0d55-ca8d-448c-9b13-c23e4403d2c8}, !- Handle
  {41e44326-a1f7-4858-9d4e-a615bd578443}; !- HVAC Component

OS:PortList,
  {1c9b3005-6743-4a2c-b94d-8b12361ecb8f}, !- Handle
  {41e44326-a1f7-4858-9d4e-a615bd578443}, !- HVAC Component
  {ca69e9f9-585d-48d5-9daa-3e9536ccf841}; !- Port 1

OS:Sizing:Zone,
  {d7b798c4-8d98-42bb-bebe-40e367f7c28d}, !- Handle
  {41e44326-a1f7-4858-9d4e-a615bd578443}, !- Zone or ZoneList Name
  SupplyAirTemperature,                   !- Zone Cooling Design Supply Air Temperature Input Method
  14,                                     !- Zone Cooling Design Supply Air Temperature {C}
  11.11,                                  !- Zone Cooling Design Supply Air Temperature Difference {deltaC}
  SupplyAirTemperature,                   !- Zone Heating Design Supply Air Temperature Input Method
  40,                                     !- Zone Heating Design Supply Air Temperature {C}
  11.11,                                  !- Zone Heating Design Supply Air Temperature Difference {deltaC}
  0.0085,                                 !- Zone Cooling Design Supply Air Humidity Ratio {kg-H2O/kg-air}
  0.008,                                  !- Zone Heating Design Supply Air Humidity Ratio {kg-H2O/kg-air}
  ,                                       !- Zone Heating Sizing Factor
  ,                                       !- Zone Cooling Sizing Factor
  DesignDay,                              !- Cooling Design Air Flow Method
  ,                                       !- Cooling Design Air Flow Rate {m3/s}
  ,                                       !- Cooling Minimum Air Flow per Zone Floor Area {m3/s-m2}
  ,                                       !- Cooling Minimum Air Flow {m3/s}
  ,                                       !- Cooling Minimum Air Flow Fraction
  DesignDay,                              !- Heating Design Air Flow Method
  ,                                       !- Heating Design Air Flow Rate {m3/s}
  ,                                       !- Heating Maximum Air Flow per Zone Floor Area {m3/s-m2}
  ,                                       !- Heating Maximum Air Flow {m3/s}
  ,                                       !- Heating Maximum Air Flow Fraction
  No,                                     !- Account for Dedicated Outdoor Air System
  NeutralSupplyAir,                       !- Dedicated Outdoor Air System Control Strategy
  autosize,                               !- Dedicated Outdoor Air Low Setpoint Temperature for Design {C}
  autosize,                               !- Dedicated Outdoor Air High Setpoint Temperature for Design {C}
  Sensible Load Only No Latent Load,      !- Zone Load Sizing Method
  HumidityRatioDifference,                !- Zone Latent Cooling Design Supply Air Humidity Ratio Input Method
  ,                                       !- Zone Dehumidification Design Supply Air Humidity Ratio {kgWater/kgDryAir}
  0.005,                                  !- Zone Cooling Design Supply Air Humidity Ratio Difference {kgWater/kgDryAir}
  HumidityRatioDifference,                !- Zone Latent Heating Design Supply Air Humidity Ratio Input Method
  ,                                       !- Zone Humidification Design Supply Air Humidity Ratio {kgWater/kgDryAir}
  0.005,                                  !- Zone Humidification Design Supply Air Humidity Ratio Difference {kgWater/kgDryAir}
  ,                                       !- Zone Humidistat Dehumidification Set Point Schedule Name
  ,                                       !- Zone Humidistat Humidification Set Point Schedule Name
  ,                                       !- Design Zone Air Distribution Effectiveness in Cooling Mode
  ,                                       !- Design Zone Air Distribution Effectiveness in Heating Mode
  ,                                       !- Design Zone Secondary Recirculation Fraction {dimensionless}
  ,                                       !- Design Minimum Zone Ventilation Efficiency {dimensionless}
  Coincident;                             !- Sizing Option

OS:ZoneHVAC:EquipmentList,
  {0dafe5a8-274a-4068-a675-d9ad43031117}, !- Handle
  Zone HVAC Equipment List 1,             !- Name
  {41e44326-a1f7-4858-9d4e-a615bd578443}, !- Thermal Zone
  ,                                       !- Load Distribution Scheme
  {99095602-e0a2-473e-a417-266442906d5c}, !- Zone Equipment 1
  1,                                      !- Zone Equipment Cooling Sequence 1
  1,                                      !- Zone Equipment Heating or No-Load Sequence 1
  {43e5c267-db01-46a7-926e-b7e109bc11ba}, !- Zone Equipment Sequential Cooling Fraction Schedule Name 1
  {1f065dbf-e964-4f7e-98e6-4df7449aa8a9}; !- Zone Equipment Sequential Heating Fraction Schedule Name 1

OS:AdditionalProperties,
  {1993256b-ae16-4e9f-9802-b44232d2b9c5}, !- Handle
  {41e44326-a1f7-4858-9d4e-a615bd578443}, !- Object Name
  ObjectType,                             !- Feature Name 1
  String,                                 !- Feature Data Type 1
  conditioned space;                      !- Feature Value 1

OS:Space,
  {60992d79-ade6-4987-8bd2-dbcc27c63e62}, !- Handle
  conditioned space 1,                    !- Name
  ,                                       !- Space Type Name
  ,                                       !- Default Construction Set Name
  ,                                       !- Default Schedule Set Name
  ,                                       !- Direction of Relative North {deg}
  ,                                       !- X Origin {m}
  ,                                       !- Y Origin {m}
  ,                                       !- Z Origin {m}
  ,                                       !- Building Story Name
  {41e44326-a1f7-4858-9d4e-a615bd578443}, !- Thermal Zone Name
  ,                                       !- Part of Total Floor Area
  ,                                       !- Design Specification Outdoor Air Object Name
  ,                                       !- Building Unit Name
  692.06373070848;                        !- Volume {m3}

OS:Schedule:Ruleset,
  {2a7c4fb3-88c6-4211-a869-895357db343a}, !- Handle
  heating setpoint,                       !- Name
  {58303abb-1b35-443c-bc06-db1b697f0d10}, !- Schedule Type Limits Name
  {d5a440f5-6cb5-4742-bf4a-dc6437036dd4}; !- Default Day Schedule Name

OS:Schedule:Day,
  {d5a440f5-6cb5-4742-bf4a-dc6437036dd4}, !- Handle
  heating setpoint default day,           !- Name
  {58303abb-1b35-443c-bc06-db1b697f0d10}, !- Schedule Type Limits Name
  ,                                       !- Interpolate to Timestep
  24,                                     !- Hour 1
  0,                                      !- Minute 1
  0;                                      !- Value Until Time 1

OS:Schedule:Rule,
  {2c102e8c-1a9b-461a-84b2-3dea3e370293}, !- Handle
  heating setpoint allday rule,           !- Name
  {2a7c4fb3-88c6-4211-a869-895357db343a}, !- Schedule Ruleset Name
  0,                                      !- Rule Order
  {94a315ad-4864-4a63-bfe0-14bf437609ea}, !- Day Schedule Name
  Yes,                                    !- Apply Sunday
  Yes,                                    !- Apply Monday
  Yes,                                    !- Apply Tuesday
  Yes,                                    !- Apply Wednesday
  Yes,                                    !- Apply Thursday
  Yes,                                    !- Apply Friday
  Yes,                                    !- Apply Saturday
  DateRange,                              !- Date Specification Type
  1,                                      !- Start Month
  1,                                      !- Start Day
  12,                                     !- End Month
  31;                                     !- End Day

OS:Schedule:Day,
  {94a315ad-4864-4a63-bfe0-14bf437609ea}, !- Handle
  heating setpoint day,                   !- Name
  {58303abb-1b35-443c-bc06-db1b697f0d10}, !- Schedule Type Limits Name
  ,                                       !- Interpolate to Timestep
  24,                                     !- Hour 1
  0,                                      !- Minute 1
  20;                                     !- Value Until Time 1

OS:Schedule:Ruleset,
  {024f1768-b045-4530-ba06-128dc91db4b9}, !- Handle
  cooling setpoint,                       !- Name
  {58303abb-1b35-443c-bc06-db1b697f0d10}, !- Schedule Type Limits Name
  {6aab46ed-f185-4c99-9b3a-07d5c5bd1927}; !- Default Day Schedule Name

OS:Schedule:Day,
  {6aab46ed-f185-4c99-9b3a-07d5c5bd1927}, !- Handle
  cooling setpoint default day,           !- Name
  {58303abb-1b35-443c-bc06-db1b697f0d10}, !- Schedule Type Limits Name
  ,                                       !- Interpolate to Timestep
  24,                                     !- Hour 1
  0,                                      !- Minute 1
  0;                                      !- Value Until Time 1

OS:Schedule:Rule,
  {cb394c97-c430-4d80-8a20-c678fd9bbcf9}, !- Handle
  cooling setpoint allday rule,           !- Name
  {024f1768-b045-4530-ba06-128dc91db4b9}, !- Schedule Ruleset Name
  0,                                      !- Rule Order
  {5211c04f-a6ee-4355-b7e4-c62ad9e3ff6f}, !- Day Schedule Name
  Yes,                                    !- Apply Sunday
  Yes,                                    !- Apply Monday
  Yes,                                    !- Apply Tuesday
  Yes,                                    !- Apply Wednesday
  Yes,                                    !- Apply Thursday
  Yes,                                    !- Apply Friday
  Yes,                                    !- Apply Saturday
  DateRange,                              !- Date Specification Type
  1,                                      !- Start Month
  1,                                      !- Start Day
  12,                                     !- End Month
  31;                                     !- End Day

OS:Schedule:Day,
  {5211c04f-a6ee-4355-b7e4-c62ad9e3ff6f}, !- Handle
  cooling setpoint day,                   !- Name
  {58303abb-1b35-443c-bc06-db1b697f0d10}, !- Schedule Type Limits Name
  ,                                       !- Interpolate to Timestep
  24,                                     !- Hour 1
  0,                                      !- Minute 1
  25.5555555555556;                       !- Value Until Time 1

OS:ThermostatSetpoint:DualSetpoint,
  {7f6e276a-e4e7-41db-9c63-2c9f365ea977}, !- Handle
  conditioned space temperature setpoint, !- Name
  {2a7c4fb3-88c6-4211-a869-895357db343a}, !- Heating Setpoint Temperature Schedule Name
  {024f1768-b045-4530-ba06-128dc91db4b9}, !- Cooling Setpoint Temperature Schedule Name
  0;                                      !- Temperature Difference Between Cutout And Setpoint {deltaC}

OS:ScheduleTypeLimits,
  {58303abb-1b35-443c-bc06-db1b697f0d10}, !- Handle
  Temperature,                            !- Name
  ,                                       !- Lower Limit Value
  ,                                       !- Upper Limit Value
  Continuous,                             !- Numeric Type
  Temperature;                            !- Unit Type

OS:Surface,
  {ec9f25e6-6d6a-4362-b00d-0d28203cda4d}, !- Handle
  Roof1,                                  !- Name
  RoofCeiling,                            !- Surface Type
  {41ecdc22-0e96-4b4d-b0c6-1afbc0168c28}, !- Construction Name
  {ae80130d-093d-4396-a597-c4f78c93168e}, !- Space Name
  Outdoors,                               !- Outside Boundary Condition
  ,                                       !- Outside Boundary Condition Object
  SunExposed,                             !- Sun Exposure
  WindExposed,                            !- Wind Exposure
  ,                                       !- View Factor to Ground
  ,                                       !- Number of Vertices
  -26.9347048849634, 58.0557891618865, 2.4384, !- X,Y,Z Vertex 1 {m}
  -26.9347048849634, 46.7895631136661, 8.0715130241102, !- X,Y,Z Vertex 2 {m}
  -14.3386812381136, 46.7895631136661, 8.0715130241102, !- X,Y,Z Vertex 3 {m}
  -14.3386812381136, 58.0557891618865, 2.4384; !- X,Y,Z Vertex 4 {m}

OS:AdditionalProperties,
  {bd35c779-5113-4220-ae9f-20860d5186c9}, !- Handle
  {ec9f25e6-6d6a-4362-b00d-0d28203cda4d}, !- Object Name
  Length,                                 !- Feature Name 1
  Double,                                 !- Feature Data Type 1
  41.325536899113608,                     !- Feature Value 1
  Width,                                  !- Feature Name 2
  Double,                                 !- Feature Data Type 2
  41.325536899113601,                     !- Feature Value 2
  Azimuth,                                !- Feature Name 3
  Integer,                                !- Feature Data Type 3
  0,                                      !- Feature Value 3
  Tilt,                                   !- Feature Name 4
  Double,                                 !- Feature Data Type 4
  0.5,                                    !- Feature Value 4
  SurfaceType,                            !- Feature Name 5
  String,                                 !- Feature Data Type 5
  Roof;                                   !- Feature Value 5

OS:ThermalZone,
  {c417bc63-0fdc-421c-a513-0b343796ec93}, !- Handle
  attic - vented,                         !- Name
  1,                                      !- Multiplier
  ,                                       !- Ceiling Height {m}
  356.390921899745,                       !- Volume {m3}
  ,                                       !- Floor Area {m2}
  ,                                       !- Zone Inside Convection Algorithm
  ,                                       !- Zone Outside Convection Algorithm
  ,                                       !- Zone Conditioning Equipment List Name
  {6cd1ddfd-878d-44da-99ec-214fa96547b7}, !- Zone Air Inlet Port List
  {75888d3f-6ea1-42f7-81a2-39ffd4975613}, !- Zone Air Exhaust Port List
  {dc3e6105-3ee5-4c4d-a644-954c23bafa23}, !- Zone Air Node Name
  {58c1d762-fda3-4c09-ac03-89c7e285d80d}, !- Zone Return Air Port List
  ,                                       !- Primary Daylighting Control Name
  ,                                       !- Fraction of Zone Controlled by Primary Daylighting Control
  ,                                       !- Secondary Daylighting Control Name
  ,                                       !- Fraction of Zone Controlled by Secondary Daylighting Control
  ,                                       !- Illuminance Map Name
  ,                                       !- Group Rendering Name
  ,                                       !- Thermostat Name
  No;                                     !- Use Ideal Air Loads

OS:Node,
  {6adbc274-b91f-4e34-9ada-ef47b20adbe5}, !- Handle
  Node 2,                                 !- Name
  {dc3e6105-3ee5-4c4d-a644-954c23bafa23}, !- Inlet Port
  ;                                       !- Outlet Port

OS:Connection,
  {dc3e6105-3ee5-4c4d-a644-954c23bafa23}, !- Handle
  {c417bc63-0fdc-421c-a513-0b343796ec93}, !- Source Object
  11,                                     !- Outlet Port
  {6adbc274-b91f-4e34-9ada-ef47b20adbe5}, !- Target Object
  2;                                      !- Inlet Port

OS:PortList,
  {6cd1ddfd-878d-44da-99ec-214fa96547b7}, !- Handle
  {c417bc63-0fdc-421c-a513-0b343796ec93}; !- HVAC Component

OS:PortList,
  {75888d3f-6ea1-42f7-81a2-39ffd4975613}, !- Handle
  {c417bc63-0fdc-421c-a513-0b343796ec93}; !- HVAC Component

OS:PortList,
  {58c1d762-fda3-4c09-ac03-89c7e285d80d}, !- Handle
  {c417bc63-0fdc-421c-a513-0b343796ec93}; !- HVAC Component

OS:Sizing:Zone,
  {9004e177-b19e-476c-9cff-4723f5ca02b4}, !- Handle
  {c417bc63-0fdc-421c-a513-0b343796ec93}, !- Zone or ZoneList Name
  SupplyAirTemperature,                   !- Zone Cooling Design Supply Air Temperature Input Method
  14,                                     !- Zone Cooling Design Supply Air Temperature {C}
  11.11,                                  !- Zone Cooling Design Supply Air Temperature Difference {deltaC}
  SupplyAirTemperature,                   !- Zone Heating Design Supply Air Temperature Input Method
  40,                                     !- Zone Heating Design Supply Air Temperature {C}
  11.11,                                  !- Zone Heating Design Supply Air Temperature Difference {deltaC}
  0.0085,                                 !- Zone Cooling Design Supply Air Humidity Ratio {kg-H2O/kg-air}
  0.008,                                  !- Zone Heating Design Supply Air Humidity Ratio {kg-H2O/kg-air}
  ,                                       !- Zone Heating Sizing Factor
  ,                                       !- Zone Cooling Sizing Factor
  DesignDay,                              !- Cooling Design Air Flow Method
  ,                                       !- Cooling Design Air Flow Rate {m3/s}
  ,                                       !- Cooling Minimum Air Flow per Zone Floor Area {m3/s-m2}
  ,                                       !- Cooling Minimum Air Flow {m3/s}
  ,                                       !- Cooling Minimum Air Flow Fraction
  DesignDay,                              !- Heating Design Air Flow Method
  ,                                       !- Heating Design Air Flow Rate {m3/s}
  ,                                       !- Heating Maximum Air Flow per Zone Floor Area {m3/s-m2}
  ,                                       !- Heating Maximum Air Flow {m3/s}
  ,                                       !- Heating Maximum Air Flow Fraction
  No,                                     !- Account for Dedicated Outdoor Air System
  NeutralSupplyAir,                       !- Dedicated Outdoor Air System Control Strategy
  autosize,                               !- Dedicated Outdoor Air Low Setpoint Temperature for Design {C}
  autosize,                               !- Dedicated Outdoor Air High Setpoint Temperature for Design {C}
  Sensible Load Only No Latent Load,      !- Zone Load Sizing Method
  HumidityRatioDifference,                !- Zone Latent Cooling Design Supply Air Humidity Ratio Input Method
  ,                                       !- Zone Dehumidification Design Supply Air Humidity Ratio {kgWater/kgDryAir}
  0.005,                                  !- Zone Cooling Design Supply Air Humidity Ratio Difference {kgWater/kgDryAir}
  HumidityRatioDifference,                !- Zone Latent Heating Design Supply Air Humidity Ratio Input Method
  ,                                       !- Zone Humidification Design Supply Air Humidity Ratio {kgWater/kgDryAir}
  0.005,                                  !- Zone Humidification Design Supply Air Humidity Ratio Difference {kgWater/kgDryAir}
  ,                                       !- Zone Humidistat Dehumidification Set Point Schedule Name
  ,                                       !- Zone Humidistat Humidification Set Point Schedule Name
  ,                                       !- Design Zone Air Distribution Effectiveness in Cooling Mode
  ,                                       !- Design Zone Air Distribution Effectiveness in Heating Mode
  ,                                       !- Design Zone Secondary Recirculation Fraction {dimensionless}
  ,                                       !- Design Minimum Zone Ventilation Efficiency {dimensionless}
  Coincident;                             !- Sizing Option

OS:ZoneHVAC:EquipmentList,
  {59bf46aa-8bb7-4928-bfc3-172e16fac4e1}, !- Handle
  Zone HVAC Equipment List 2,             !- Name
  {c417bc63-0fdc-421c-a513-0b343796ec93}; !- Thermal Zone

OS:AdditionalProperties,
  {794c3d65-c571-4ff4-a503-6f33a102964d}, !- Handle
  {c417bc63-0fdc-421c-a513-0b343796ec93}, !- Object Name
  ObjectType,                             !- Feature Name 1
  String,                                 !- Feature Data Type 1
  attic - vented;                         !- Feature Value 1

OS:Space,
  {ae80130d-093d-4396-a597-c4f78c93168e}, !- Handle
  attic - vented 1,                       !- Name
  ,                                       !- Space Type Name
  ,                                       !- Default Construction Set Name
  ,                                       !- Default Schedule Set Name
  ,                                       !- Direction of Relative North {deg}
  ,                                       !- X Origin {m}
  ,                                       !- Y Origin {m}
  ,                                       !- Z Origin {m}
  ,                                       !- Building Story Name
  {c417bc63-0fdc-421c-a513-0b343796ec93}, !- Thermal Zone Name
  ,                                       !- Part of Total Floor Area
  ,                                       !- Design Specification Outdoor Air Object Name
  ,                                       !- Building Unit Name
  356.390921899745;                       !- Volume {m3}

OS:Material,
  {7aa85d3a-50a0-4e1b-ada3-cab1d1dfc9ff}, !- Handle
  asphalt or fiberglass shingles,         !- Name
  Rough,                                  !- Roughness
  0.00635,                                !- Thickness {m}
  0.162714,                               !- Conductivity {W/m-K}
  1121.4,                                 !- Density {kg/m3}
  1465.45,                                !- Specific Heat {J/kg-K}
  0.9,                                    !- Thermal Absorptance
  0.85,                                   !- Solar Absorptance