
OS:Version,
  {24ce9545-c325-4b8a-ae63-e6b51b746ff6}, !- Handle
  3.9.0;                                  !- Version Identifier

OS:SimulationControl,
  {751c1245-bc26-43ec-a8e1-c67f741c709b}, !- Handle
  ,                                       !- Do Zone Sizing Calculation
  ,                                       !- Do System Sizing Calculation
  ,                                       !- Do Plant Sizing Calculation
  No;                                     !- Run Simulation for Sizing Periods

OS:Timestep,
  {8a68cb7e-ace5-4b89-bc51-75f98bee2948}, !- Handle
  1;                                      !- Number of Timesteps per Hour

OS:ShadowCalculation,
  {f34b79b1-ed4e-4f27-a4c3-545786f0277b}, !- Handle
  PolygonClipping,                        !- Shading Calculation Method
  ,                                       !- Shading Calculation Update Frequency Method
  20,                                     !- Shading Calculation Update Frequency
  200,                                    !- Maximum Figures in Shadow Overlap Calculations
  ,                                       !- Polygon Clipping Algorithm
  512,                                    !- Pixel Counting Resolution
  ,                                       !- Sky Diffuse Modeling Algorithm
  No,                                     !- Output External Shading Calculation Results
  No,                                     !- Disable Self-Shading Within Shading Zone Groups
  No;                                     !- Disable Self-Shading From Shading Zone Groups to Other Zones

OS:SurfaceConvectionAlgorithm:Outside,
  {95234f3a-2998-4640-b376-49b86b81a2c4}, !- Handle
  DOE-2;                                  !- Algorithm

OS:SurfaceConvectionAlgorithm:Inside,
  {43ad5e8a-9d7a-46d3-b14f-1f729fb5cebc}, !- Handle
  TARP;                                   !- Algorithm

OS:ZoneCapacitanceMultiplier:ResearchSpecial,
  {a6198c3e-0539-4595-8408-267e143800aa}, !- Handle
  7,                                      !- Temperature Capacity Multiplier
  15,                                     !- Humidity Capacity Multiplier
  ;                                       !- Carbon Dioxide Capacity Multiplier

OS:ConvergenceLimits,
  {c3b8226e-5027-45f3-a569-4f5a8664c1dc}, !- Handle
  0;                                      !- Minimum System Timestep {minutes}

OS:RunPeriod,
  {02f170b9-ed3c-4a93-8ced-f5438ece5807}, !- Handle
  Run Period 1,                           !- Name
  1,                                      !- Begin Month
  1,                                      !- Begin Day of Month
  12,                                     !- End Month
  31,                                     !- End Day of Month
  ,                                       !- Use Weather File Holidays and Special Days
  ,                                       !- Use Weather File Daylight Saving Period
  ,                                       !- Apply Weekend Holiday Rule
  ,                                       !- Use Weather File Rain Indicators
  ,                                       !- Use Weather File Snow Indicators
  ;                                       !- Number of Times Runperiod to be Repeated

OS:PerformancePrecisionTradeoffs,
  {7940e2a6-6d50-43f2-9d2f-565ff4cbd240}, !- Handle
  ,                                       !- Use Coil Direct Solutions
  CarrollMRT;                             !- Zone Radiant Exchange Algorithm

OS:WeatherFile,
  {19c9e77e-54f3-42c4-b216-96a719150089}, !- Handle
  Buffalo Niagara Intl Ap,                !- City
  NY,                                     !- State Province Region
  USA,                                    !- Country
  TMY3,                                   !- Data Source
  725280,                                 !- WMO Number
  42.93,                                  !- Latitude {deg}
  -78.73,                                 !- Longitude {deg}
  -5,                                     !- Time Zone {hr}
  215,                                    !- Elevation {m}
  /Users/nmoore/github/urbanopt-example-geojson-project/example_project/weather/USA_NY_Buffalo-Greater.Buffalo.Intl.AP.725280_TMY3.epw, !- Url
  6B50E0FF,                               !- Checksum
  ,                                       !- Start Date Actual Year
  Sunday;                                 !- Start Day of Week

OS:YearDescription,
  {5ace5a47-6571-4cb6-85db-f7bd137c2da4}, !- Handle
  2007,                                   !- Calendar Year
  ,                                       !- Day of Week for Start Day
  ;                                       !- Is Leap Year

OS:Site,
  {66b1a440-d56c-4a71-bd41-ee3d84e2b638}, !- Handle
  Buffalo Niagara Intl Ap_NY,             !- Name
  42.93,                                  !- Latitude {deg}
  -78.73,                                 !- Longitude {deg}
  -5,                                     !- Time Zone {hr}
  215,                                    !- Elevation {m}
  Suburbs,                                !- Terrain
  Yes;                                    !- Keep Site Location Information

OS:RunPeriodControl:DaylightSavingTime,
  {aa6f1e52-75ef-4b4e-9c69-8aa4106876ce}, !- Handle
  Mar 12,                                 !- Start Date
  Nov 5;                                  !- End Date

OS:Site:GroundTemperature:Shallow,
  {08b710cc-0bb5-49d7-b757-23463b4b335a}, !- Handle
  4.30207395723828,                       !- January Surface Ground Temperature {C}
  2.29327249652502,                       !- February Surface Ground Temperature {C}
  2.13240047156047,                       !- March Surface Ground Temperature {C}
  3.08567940719286,                       !- April Surface Ground Temperature {C}
  6.91256312497526,                       !- May Surface Ground Temperature {C}
  10.7216195949507,                       !- June Surface Ground Temperature {C}
  14.0238679822574,                       !- July Surface Ground Temperature {C}
  16.1157611184724,                       !- August Surface Ground Temperature {C}
  16.2934789303462,                       !- September Surface Ground Temperature {C}
  14.5920754632847,                       !- October Surface Ground Temperature {C}
  11.374036348653,                        !- November Surface Ground Temperature {C}
  7.68182621661674;                       !- December Surface Ground Temperature {C}

OS:ThermalZone,
  {b2eb7b5e-04a7-44c9-9d68-d5551030c930}, !- Handle
  conditioned space,                      !- Name
  1,                                      !- Multiplier
  ,                                       !- Ceiling Height {m}
  475.79381486208,                        !- Volume {m3}
  ,                                       !- Floor Area {m2}
  ,                                       !- Zone Inside Convection Algorithm
  ,                                       !- Zone Outside Convection Algorithm
  ,                                       !- Zone Conditioning Equipment List Name
  {c2735b49-d9cb-4b65-99de-b6f46ad2056e}, !- Zone Air Inlet Port List
  {d6d3c37e-6a68-4409-913f-c8dd23b58d65}, !- Zone Air Exhaust Port List
  {67353238-61f2-4370-83a3-a27f39dc4d16}, !- Zone Air Node Name
  {b0f6d0d1-71ef-4928-8839-a67ecf9d1330}, !- Zone Return Air Port List
  ,                                       !- Primary Daylighting Control Name
  ,                                       !- Fraction of Zone Controlled by Primary Daylighting Control
  ,                                       !- Secondary Daylighting Control Name
  ,                                       !- Fraction of Zone Controlled by Secondary Daylighting Control
  ,                                       !- Illuminance Map Name
  ,                                       !- Group Rendering Name
  {07efb4b9-6d18-496b-aea2-e94286824e92}, !- Thermostat Name
  No;                                     !- Use Ideal Air Loads

OS:Node,
  {c48a3b8e-c713-43f9-a4f0-1448c381a6cd}, !- Handle
  Node 1,                                 !- Name
  {67353238-61f2-4370-83a3-a27f39dc4d16}, !- Inlet Port
  ;                                       !- Outlet Port

OS:Connection,
  {67353238-61f2-4370-83a3-a27f39dc4d16}, !- Handle
  {b2eb7b5e-04a7-44c9-9d68-d5551030c930}, !- Source Object
  11,                                     !- Outlet Port
  {c48a3b8e-c713-43f9-a4f0-1448c381a6cd}, !- Target Object
  2;                                      !- Inlet Port

OS:PortList,
  {c2735b49-d9cb-4b65-99de-b6f46ad2056e}, !- Handle
  {b2eb7b5e-04a7-44c9-9d68-d5551030c930}, !- HVAC Component
  {2967fb69-e360-4099-b611-d76f9eb21253}; !- Port 1

OS:PortList,
  {d6d3c37e-6a68-4409-913f-c8dd23b58d65}, !- Handle
  {b2eb7b5e-04a7-44c9-9d68-d5551030c930}; !- HVAC Component

OS:PortList,
  {b0f6d0d1-71ef-4928-8839-a67ecf9d1330}, !- Handle
  {b2eb7b5e-04a7-44c9-9d68-d5551030c930}, !- HVAC Component
  {ad6e4592-7776-4872-ba54-2f777c48d3e0}; !- Port 1

OS:Sizing:Zone,
  {1bcb2600-5cbd-4090-a61a-c6ad06ee9d15}, !- Handle
  {b2eb7b5e-04a7-44c9-9d68-d5551030c930}, !- Zone or ZoneList Name
  SupplyAirTemperature,                   !- Zone Cooling Design Supply Air Temperature Input Method
  14,                                     !- Zone Cooling Design Supply Air Temperature {C}
  11.11,                                  !- Zone Cooling Design Supply Air Temperature Difference {deltaC}
  SupplyAirTemperature,                   !- Zone Heating Design Supply Air Temperature Input Method
  40,                                     !- Zone Heating Design Supply Air Temperature {C}
  11.11,                                  !- Zone Heating Design Supply Air Temperature Difference {deltaC}
  0.0085,                                 !- Zone Cooling Design Supply Air Humidity Ratio {kg-H2O/kg-air}
  0.008,                                  !- Zone Heating Design Supply Air Humidity Ratio {kg-H2O/kg-air}
  ,                                       !- Zone Heating Sizing Factor
  ,                                       !- Zone Cooling Sizing Factor
  DesignDay,                              !- Cooling Design Air Flow Method
  ,                                       !- Cooling Design Air Flow Rate {m3/s}
  ,                                       !- Cooling Minimum Air Flow per Zone Floor Area {m3/s-m2}
  ,                                       !- Cooling Minimum Air Flow {m3/s}
  ,                                       !- Cooling Minimum Air Flow Fraction
  DesignDay,                              !- Heating Design Air Flow Method
  ,                                       !- Heating Design Air Flow Rate {m3/s}
  ,                                       !- Heating Maximum Air Flow per Zone Floor Area {m3/s-m2}
  ,                                       !- Heating Maximum Air Flow {m3/s}
  ,                                       !- Heating Maximum Air Flow Fraction
  No,                                     !- Account for Dedicated Outdoor Air System
  NeutralSupplyAir,                       !- Dedicated Outdoor Air System Control Strategy
  autosize,                               !- Dedicated Outdoor Air Low Setpoint Temperature for Design {C}
  autosize,                               !- Dedicated Outdoor Air High Setpoint Temperature for Design {C}
  Sensible Load Only No Latent Load,      !- Zone Load Sizing Method
  HumidityRatioDifference,                !- Zone Latent Cooling Design Supply Air Humidity Ratio Input Method
  ,                                       !- Zone Dehumidification Design Supply Air Humidity Ratio {kgWater/kgDryAir}
  0.005,                                  !- Zone Cooling Design Supply Air Humidity Ratio Difference {kgWater/kgDryAir}
  HumidityRatioDifference,                !- Zone Latent Heating Design Supply Air Humidity Ratio Input Method
  ,                                       !- Zone Humidification Design Supply Air Humidity Ratio {kgWater/kgDryAir}
  0.005,                                  !- Zone Humidification Design Supply Air Humidity Ratio Difference {kgWater/kgDryAir}
  ,                                       !- Zone Humidistat Dehumidification Set Point Schedule Name
  ,                                       !- Zone Humidistat Humidification Set Point Schedule Name
  ,                                       !- Design Zone Air Distribution Effectiveness in Cooling Mode
  ,                                       !- Design Zone Air Distribution Effectiveness in Heating Mode
  ,                                       !- Design Zone Secondary Recirculation Fraction {dimensionless}
  ,                                       !- Design Minimum Zone Ventilation Efficiency {dimensionless}
  Coincident;                             !- Sizing Option

OS:ZoneHVAC:EquipmentList,
  {c308dd67-03bf-412e-a48f-d2f27069d0cb}, !- Handle
  Zone HVAC Equipment List 1,             !- Name
  {b2eb7b5e-04a7-44c9-9d68-d5551030c930}, !- Thermal Zone
  ,                                       !- Load Distribution Scheme
  {6a7040d9-06cd-41c5-8812-167bd8121b60}, !- Zone Equipment 1
  1,                                      !- Zone Equipment Cooling Sequence 1
  1,                                      !- Zone Equipment Heating or No-Load Sequence 1
  {12d919bd-cec4-421d-b5aa-bdb290d7fb92}, !- Zone Equipment Sequential Cooling Fraction Schedule Name 1
  {c92c4ef8-efe9-4102-9781-76b5f2a2d2a6}; !- Zone Equipment Sequential Heating Fraction Schedule Name 1

OS:AdditionalProperties,
  {a35ed270-9a1d-4df6-9673-0a1cdbdd08ea}, !- Handle
  {b2eb7b5e-04a7-44c9-9d68-d5551030c930}, !- Object Name
  ObjectType,                             !- Feature Name 1
  String,                                 !- Feature Data Type 1
  conditioned space;                      !- Feature Value 1

OS:Space,
  {3df64a65-96ec-4844-b282-3e80d45599d2}, !- Handle
  conditioned space 1,                    !- Name
  ,                                       !- Space Type Name
  ,                                       !- Default Construction Set Name
  ,                                       !- Default Schedule Set Name
  ,                                       !- Direction of Relative North {deg}
  ,                                       !- X Origin {m}
  ,                                       !- Y Origin {m}
  ,                                       !- Z Origin {m}
  ,                                       !- Building Story Name
  {b2eb7b5e-04a7-44c9-9d68-d5551030c930}, !- Thermal Zone Name
  ,                                       !- Part of Total Floor Area
  ,                                       !- Design Specification Outdoor Air Object Name
  ,                                       !- Building Unit Name
  475.79381486208;                        !- Volume {m3}

OS:Schedule:Ruleset,
  {919b09a2-5b14-4dbe-96fd-603c05427d3f}, !- Handle
  heating setpoint,                       !- Name
  {279d4b99-3406-42b0-9761-f3cb51ac7c4f}, !- Schedule Type Limits Name
  {9d556752-5175-42bc-9ecb-1662c49fc71c}; !- Default Day Schedule Name

OS:Schedule:Day,
  {9d556752-5175-42bc-9ecb-1662c49fc71c}, !- Handle
  heating setpoint default day,           !- Name
  {279d4b99-3406-42b0-9761-f3cb51ac7c4f}, !- Schedule Type Limits Name
  ,                                       !- Interpolate to Timestep
  24,                                     !- Hour 1
  0,                                      !- Minute 1
  0;                                      !- Value Until Time 1

OS:Schedule:Rule,
  {aeba4d88-0b56-48f4-b93d-281216384ec9}, !- Handle
  heating setpoint allday rule,           !- Name
  {919b09a2-5b14-4dbe-96fd-603c05427d3f}, !- Schedule Ruleset Name
  0,                                      !- Rule Order
  {3b3b4b26-4f02-467e-84a3-2d2d0e26edc0}, !- Day Schedule Name
  Yes,                                    !- Apply Sunday
  Yes,                                    !- Apply Monday
  Yes,                                    !- Apply Tuesday
  Yes,                                    !- Apply Wednesday
  Yes,                                    !- Apply Thursday
  Yes,                                    !- Apply Friday
  Yes,                                    !- Apply Saturday
  DateRange,                              !- Date Specification Type
  1,                                      !- Start Month
  1,                                      !- Start Day
  12,                                     !- End Month
  31;                                     !- End Day

OS:Schedule:Day,
  {3b3b4b26-4f02-467e-84a3-2d2d0e26edc0}, !- Handle
  heating setpoint day,                   !- Name
  {279d4b99-3406-42b0-9761-f3cb51ac7c4f}, !- Schedule Type Limits Name
  ,                                       !- Interpolate to Timestep
  24,                                     !- Hour 1
  0,                                      !- Minute 1
  20;                                     !- Value Until Time 1

OS:Schedule:Ruleset,
  {db4a3c0c-5139-4a3d-8333-b0a9a62fd62d}, !- Handle
  cooling setpoint,                       !- Name
  {279d4b99-3406-42b0-9761-f3cb51ac7c4f}, !- Schedule Type Limits Name
  {1b50b8da-863a-45ba-8a6d-defa1f836a4c}; !- Default Day Schedule Name

OS:Schedule:Day,
  {1b50b8da-863a-45ba-8a6d-defa1f836a4c}, !- Handle
  cooling setpoint default day,           !- Name
  {279d4b99-3406-42b0-9761-f3cb51ac7c4f}, !- Schedule Type Limits Name
  ,                                       !- Interpolate to Timestep
  24,                                     !- Hour 1
  0,                                      !- Minute 1
  0;                                      !- Value Until Time 1

OS:Schedule:Rule,
  {99d51986-c2c2-4493-a35f-74a96ea57f63}, !- Handle
  cooling setpoint allday rule,           !- Name
  {db4a3c0c-5139-4a3d-8333-b0a9a62fd62d}, !- Schedule Ruleset Name
  0,                                      !- Rule Order
  {4ac3955a-a498-4d91-8684-bb950c9ba997}, !- Day Schedule Name
  Yes,                                    !- Apply Sunday
  Yes,                                    !- Apply Monday
  Yes,                                    !- Apply Tuesday
  Yes,                                    !- Apply Wednesday
  Yes,                                    !- Apply Thursday
  Yes,                                    !- Apply Friday
  Yes,                                    !- Apply Saturday
  DateRange,                              !- Date Specification Type
  1,                                      !- Start Month
  1,                                      !- Start Day
  12,                                     !- End Month
  31;                                     !- End Day

OS:Schedule:Day,
  {4ac3955a-a498-4d91-8684-bb950c9ba997}, !- Handle
  cooling setpoint day,                   !- Name
  {279d4b99-3406-42b0-9761-f3cb51ac7c4f}, !- Schedule Type Limits Name
  ,                                       !- Interpolate to Timestep
  24,                                     !- Hour 1
  0,                                      !- Minute 1
  25.5555555555556;                       !- Value Until Time 1

OS:ThermostatSetpoint:DualSetpoint,
  {07efb4b9-6d18-496b-aea2-e94286824e92}, !- Handle
  conditioned space temperature setpoint, !- Name
  {919b09a2-5b14-4dbe-96fd-603c05427d3f}, !- Heating Setpoint Temperature Schedule Name
  {db4a3c0c-5139-4a3d-8333-b0a9a62fd62d}, !- Cooling Setpoint Temperature Schedule Name
  0;                                      !- Temperature Difference Between Cutout And Setpoint {deltaC}

OS:ScheduleTypeLimits,
  {279d4b99-3406-42b0-9761-f3cb51ac7c4f}, !- Handle
  Temperature,                            !- Name
  ,                                       !- Lower Limit Value
  ,                                       !- Upper Limit Value
  Continuous,                             !- Numeric Type
  Temperature;                            !- Unit Type

OS:Surface,
  {a247607c-61bd-4248-8fec-135cd6cc3e7e}, !- Handle
  Roof1,                                  !- Name
  RoofCeiling,                            !- Surface Type
  {bbea177f-40ad-462b-a92f-5392ef1d81e7}, !- Construction Name
  {3df64a65-96ec-4844-b282-3e80d45599d2}, !- Space Name
  Outdoors,                               !- Outside Boundary Condition
  ,                                       !- Outside Boundary Condition Object
  SunExposed,                             !- Sun Exposure
  WindExposed,                            !- Wind Exposure
  ,                                       !- View Factor to Ground
  ,                                       !- Number of Vertices
  -27.1507941683368, 33.2208099683368, 2.4384, !- X,Y,Z Vertex 1 {m}
  -27.1507941683368, 25.2543851312596, 6.42161241853859, !- X,Y,Z Vertex 2 {m}
  -18.2440604316632, 25.2543851312596, 6.42161241853859, !- X,Y,Z Vertex 3 {m}
  -18.2440604316632, 33.2208099683368, 2.4384; !- X,Y,Z Vertex 4 {m}

OS:AdditionalProperties,
  {8a61ec2c-928b-40ad-89c2-ec4715f0775a}, !- Handle
  {a247607c-61bd-4248-8fec-135cd6cc3e7e}, !- Object Name
  Length,                                 !- Feature Name 1
  Double,                                 !- Feature Data Type 1
  29.221567377538118,                     !- Feature Value 1
  Width,                                  !- Feature Name 2
  Double,                                 !- Feature Data Type 2
  29.221567377538118,                     !- Feature Value 2
  Azimuth,                                !- Feature Name 3
  Integer,                                !- Feature Data Type 3
  0,                                      !- Feature Value 3
  Tilt,                                   !- Feature Name 4
  Double,                                 !- Feature Data Type 4
  0.5,                                    !- Feature Value 4
  SurfaceType,                            !- Feature Name 5
  String,                                 !- Feature Data Type 5
  Roof;                                   !- Feature Value 5

OS:Material,
  {9cae20a4-c840-468c-93dd-8aeaaa26b741}, !- Handle
  asphalt or fiberglass shingles,         !- Name
  Rough,                                  !- Roughness
  0.00635,                                !- Thickness {m}
  0.162714,                               !- Conductivity {W/m-K}
  1121.4,                                 !- Density {kg/m3}
  1465.45,                                !- Specific Heat {J/kg-K}
  0.9,                                    !- Thermal Absorptance
  0.85,                                   !- Solar Absorptance
  0.85;                                   !- Visible Absorptance

OS:Material,
  {83025bfe-5882-403d-b212-7e423eb50aa3}, !- Handle
  roof stud and cavity,                   !- Name
  Rough,                                  !- Roughness
  0.0889,                                 !- Thickness {m}
  0.468249472857624,                      !- Conductivity {W/m-K}
  50.32683,                               !- Density {kg/m3}
  1063.80987585548,                       !- Specific Heat {J/kg-K}
  0.9,                                    !- Thermal Absorptance
  0.7,                                    !- Solar Absorptance
  0.7;                                    !- Visible Absorptance

OS:Material,
  {9e5eea8c-e775-442b-88a7-db791b135fd4}, !- Handle
  gypsum board,                           !- Name
  Rough,                                  !- Roughness
  0.00254,                                !- Thickness {m}
  0.1602906,                              !- Conductivity {W/m-K}
  801,                                    !- Density {kg/m3}
  837.4,                                  !- Specific Heat {J/kg-K}
  0.9,                                    !- Thermal Absorptance
  0.6,                                    !- Solar Absorptance
  0.6;                                    !- Visible Absorptance

OS:Construction,
  {bbea177f-40ad-462b-a92f-5392ef1d81e7}, !- Handle
  Roof1 construction,                     !- Name
  ,                                       !- Surface Rendering Name
  {9cae20a4-c840-468c-93dd-8aeaaa26b741}, !- Layer 1
  {83025bfe-5882-403d-b212-7e423eb50aa3}, !- Layer 2
  {9e5eea8c-e775-442b-88a7-db791b135fd4}; !- Layer 3

OS:Surface,
  {35ada642-d94a-48b0-9864-c16efb3655e9}, !- Handle
  Roof2,                                  !- Name
  RoofCeiling,                            !- Surface Type
  {6cab54cc-1737-4510-a8c5-345b44d7942b}, !- Construction Name
  {3df64a65-96ec-4844-b282-3e80d45599d2}, !- Space Name
  Outdoors,                               !- Outside Boundary Condition
  ,                                       !- Outside Boundary Condition Object
  SunExposed,                             !- Sun Exposure
  WindExposed,                            !- Wind Exposure
  ,                                       !- View Factor to Ground
  ,                                       !- Number of Vertices
  -24.3140762316632, -33.2208099683368, 2.4384, !- X,Y,Z Vertex 1 {m}
  -24.3140762316632, -25.2543851312596, 6.42161241853859, !- X,Y,Z Vertex 2 {m}
  -33.2208099683368, -25.2543851312596, 6.42161241853859, !- X,Y,Z Vertex 3 {m}
  -33.2208099683368, -33.2208099683368, 2.4384; !- X,Y,Z Vertex 4 {m}

OS:AdditionalProperties,
  {71e6c1d2-091e-4fe2-a526-1066f5456693}, !- Handle
  {35ada642-d94a-48b0-9864-c16efb3655e9}, !- Object Name
  Length,                                 !- Feature Name 1
  Double,                                 !- Feature Data Type 1
  29.221567377538118,                     !- Feature Value 1
  Width,                                  !- Feature Name 2
  Double,                                 !- Feature Data Type 2
  29.221567377538118,                     !- Feature Value 2
  Azimuth,                                !- Feature Name 3
  Integer,                                !- Feature Data Type 3
  180,                                    !- Feature Value 3
  Tilt,                                   !- Feature Name 4
  Double,                                 !- Feature Data Type 4
  0.5,                                    !- Feature Value 4
  SurfaceType,                            !- Feature Name 5
  String,                                 !- Feature Data Type 5
  Roof;                                   !- Feature Value 5

OS:Construction,
  {6cab54cc-1737-4510-a8c5-345b44d7942b}, !- Handle
  Roof2 construction,                     !- Name
  ,                                       !- Surface Rendering Name
  {9cae20a4-c840-468c-93dd-8aeaaa26b741}, !- Layer 1
  {83025bfe-5882-403d-b212-7e423eb50aa3}, !- Layer 2
  {9e5eea8c-e775-442b-88a7-db791b135fd4}; !- Layer 3

OS:Surface,
  {e3c9a092-a8de-4221-ae11-1bf886d077bf}, !- Handle
  Wall1,                                  !- Name
  Wall,                                   !- Surface Type
  {fe785497-0325-4a2e-ab99-c68a8aae07ac}, !- Construction Name
  {3df64a65-96ec-4844-b282-3e80d45599d2}, !- Space Name
  Outdoors,                               !- Outside Boundary Condition
  ,                                       !- Outside Boundary Condition Object
  SunExposed,                             !- Sun Exposure
  WindExposed,                            !- Wind Exposure
  ,                                       !- View Factor to Ground
  ,                                       !- Number of Vertices
  -32.2917795683368, 33.2208099683368, 0, !- X,Y,Z Vertex 1 {m}
  -32.2917795683368, 33.2208099683368, 4.8768, !- X,Y,Z Vertex 2 {m}
  -28.0798245683368, 33.2208099683368, 4.8768, !- X,Y,Z Vertex 3 {m}
  -28.0798245683368, 33.2208099683368, 0; !- X,Y,Z Vertex 4 {m}

OS:AdditionalProperties,
  {06ae280b-2cce-4020-a9b3-1ddf4917da28}, !- Handle
  {e3c9a092-a8de-4221-ae11-1bf886d077bf}, !- Object Name
  Length,                                 !- Feature Name 1
  Double,                                 !- Feature Data Type 1
  13.81875,                               !- Feature Value 1
  Azimuth,                                !- Feature Name 2
  Integer,                                !- Feature Data Type 2
  0,                                      !- Feature Value 2
  Tilt,                                   !- Feature Name 3
  Double,                                 !- Feature Data Type 3
  90,                                     !- Feature Value 3
  SurfaceType,                            !- Feature Name 4
  String,                                 !- Feature Data Type 4
  Wall;                                   !- Feature Value 4

OS:Material,
  {e90311dc-2b3a-4ba1-b0fd-8f701d21d90e}, !- Handle
  wood siding,                            !- Name
  Rough,                                  !- Roughness
  0.0254,                                 !- Thickness {m}
  0.1024175,                              !- Conductivity {W/m-K}
  544.68,                                 !- Density {kg/m3}
  1172.36,                                !- Specific Heat {J/kg-K}
  0.9,                                    !- Thermal Absorptance
  0.7,                                    !- Solar Absorptance
  0.7;                                    !- Visible Absorptance

OS:Material,
  {69e9995b-fb96-4018-b16d-46f6836c01db}, !- Handle
  osb sheathing 0.5 in.,                  !- Name
  Rough,                                  !- Roughness
  0.0127,                                 !- Thickness {m}
  0.1154577,                              !- Conductivity {W/m-K}
  512.64,                                 !- Density {kg/m3}
  1214.23,                                !- Specific Heat {J/kg-K}
  0.9,                                    !- Thermal Absorptance
  0.7,                                    !- Solar Absorptance
  0.7;                                    !- Visible Absorptance

OS:Material,
  {30d604b7-3977-4040-adaf-aa07f1bb0856}, !- Handle
  wall stud and cavity,                   !- Name
  Rough,                                  !- Roughness
  0.1397,                                 !- Thickness {m}
  0.0929021674204099,                     !- Conductivity {W/m-K}
  139.0536,                               !- Density {kg/m3}
  1170.23755760369,                       !- Specific Heat {J/kg-K}
  0.9,                                    !- Thermal Absorptance
  0.7,                                    !- Solar Absorptance