
OS:Version,
  {c1fb25a2-9099-407f-81e0-b49c816bb9be}, !- Handle
  3.10.0;                                 !- Version Identifier

OS:SimulationControl,
  {5566fcdd-002c-4f13-8c35-35fbe051777e}, !- Handle
  ,                                       !- Do Zone Sizing Calculation
  ,                                       !- Do System Sizing Calculation
  ,                                       !- Do Plant Sizing Calculation
  No;                                     !- Run Simulation for Sizing Periods

OS:Timestep,
  {4ab5569b-3d50-4b12-b9e6-7c3df7dfe36e}, !- Handle
  1;                                      !- Number of Timesteps per Hour

OS:ShadowCalculation,
  {51b1471e-e376-445f-9cdb-43568d931973}, !- Handle
  PolygonClipping,                        !- Shading Calculation Method
  ,                                       !- Shading Calculation Update Frequency Method
  20,                                     !- Shading Calculation Update Frequency
  200,                                    !- Maximum Figures in Shadow Overlap Calculations
  ,                                       !- Polygon Clipping Algorithm
  512,                                    !- Pixel Counting Resolution
  ,                                       !- Sky Diffuse Modeling Algorithm
  No,                                     !- Output External Shading Calculation Results
  No,                                     !- Disable Self-Shading Within Shading Zone Groups
  No;                                     !- Disable Self-Shading From Shading Zone Groups to Other Zones

OS:SurfaceConvectionAlgorithm:Outside,
  {9bf2d253-7e9c-404e-8b43-3d11fc9138ae}, !- Handle
  DOE-2;                                  !- Algorithm

OS:SurfaceConvectionAlgorithm:Inside,
  {db099a08-c7e3-4c5d-9e76-f7c5742099ce}, !- Handle
  TARP;                                   !- Algorithm

OS:ZoneCapacitanceMultiplier:ResearchSpecial,
  {7d8b0ab5-2892-4afe-b2ce-f1d29dfa3b08}, !- Handle
  7,                                      !- Temperature Capacity Multiplier
  15,                                     !- Humidity Capacity Multiplier
  ;                                       !- Carbon Dioxide Capacity Multiplier

OS:ConvergenceLimits,
  {c8e5ddfa-b045-43a2-9d12-6fd9f23a87dc}, !- Handle
  0;                                      !- Minimum System Timestep {minutes}

OS:RunPeriod,
  {3c0f4d79-5771-4209-8f1b-eb90efe1fa57}, !- Handle
  Run Period 1,                           !- Name
  1,                                      !- Begin Month
  1,                                      !- Begin Day of Month
  12,                                     !- End Month
  31,                                     !- End Day of Month
  ,                                       !- Use Weather File Holidays and Special Days
  ,                                       !- Use Weather File Daylight Saving Period
  ,                                       !- Apply Weekend Holiday Rule
  ,                                       !- Use Weather File Rain Indicators
  ,                                       !- Use Weather File Snow Indicators
  ;                                       !- Number of Times Runperiod to be Repeated

OS:PerformancePrecisionTradeoffs,
  {1119c070-3374-4151-b34e-f02a32dbfb1f}, !- Handle
  ,                                       !- Use Coil Direct Solutions
  CarrollMRT;                             !- Zone Radiant Exchange Algorithm

OS:WeatherFile,
  {7aad0347-cd69-4379-a1a8-d3b324e4cf56}, !- Handle
  Buffalo Niagara Intl Ap,                !- City
  NY,                                     !- State Province Region
  USA,                                    !- Country
  TMY3,                                   !- Data Source
  725280,                                 !- WMO Number
  42.93,                                  !- Latitude {deg}
  -78.73,                                 !- Longitude {deg}
  -5,                                     !- Time Zone {hr}
  215,                                    !- Elevation {m}
  /Users/nmoore/github/urbanopt-example-geojson-project/example_project/weather/USA_NY_Buffalo-Greater.Buffalo.Intl.AP.725280_TMY3.epw, !- Url
  6B50E0FF,                               !- Checksum
  ,                                       !- Start Date Actual Year
  Sunday;                                 !- Start Day of Week

OS:YearDescription,
  {08de8dab-7c0f-4e91-8576-69221af02ec3}, !- Handle
  2007,                                   !- Calendar Year
  ,                                       !- Day of Week for Start Day
  ;                                       !- Is Leap Year

OS:Site,
  {c0e217f2-b13a-4874-9921-4e92919ddedb}, !- Handle
  Buffalo Niagara Intl Ap_NY,             !- Name
  42.93,                                  !- Latitude {deg}
  -78.73,                                 !- Longitude {deg}
  -5,                                     !- Time Zone {hr}
  215,                                    !- Elevation {m}
  Suburbs,                                !- Terrain
  Yes;                                    !- Keep Site Location Information

OS:RunPeriodControl:DaylightSavingTime,
  {8551fff7-6044-4dd6-b121-9a5f10080eee}, !- Handle
  Mar 12,                                 !- Start Date
  Nov 5;                                  !- End Date

OS:Site:GroundTemperature:Shallow,
  {516fe8d8-6976-4fc1-b015-9b8f55523a38}, !- Handle
  4.30207395723828,                       !- January Surface Ground Temperature {C}
  2.29327249652502,                       !- February Surface Ground Temperature {C}
  2.13240047156047,                       !- March Surface Ground Temperature {C}
  3.08567940719286,                       !- April Surface Ground Temperature {C}
  6.91256312497526,                       !- May Surface Ground Temperature {C}
  10.7216195949507,                       !- June Surface Ground Temperature {C}
  14.0238679822574,                       !- July Surface Ground Temperature {C}
  16.1157611184724,                       !- August Surface Ground Temperature {C}
  16.2934789303462,                       !- September Surface Ground Temperature {C}
  14.5920754632847,                       !- October Surface Ground Temperature {C}
  11.374036348653,                        !- November Surface Ground Temperature {C}
  7.68182621661674;                       !- December Surface Ground Temperature {C}

OS:ThermalZone,
  {1a323341-e4a3-44ae-bb0a-0db8dc8e4ca0}, !- Handle
  conditioned space,                      !- Name
  1,                                      !- Multiplier
  ,                                       !- Ceiling Height {m}
  475.79381486208,                        !- Volume {m3}
  ,                                       !- Floor Area {m2}
  ,                                       !- Zone Inside Convection Algorithm
  ,                                       !- Zone Outside Convection Algorithm
  ,                                       !- Zone Conditioning Equipment List Name
  {2fb7d3d0-8c13-43e4-ad34-2d87f469b5e0}, !- Zone Air Inlet Port List
  {f5f88cf3-442d-4ed1-8b8f-2f361a0075e8}, !- Zone Air Exhaust Port List
  {77e50fbb-55cd-4a22-a95e-185a79eb2376}, !- Zone Air Node Name
  {0a11fa05-ba03-4959-a6cd-a153d8e03a42}, !- Zone Return Air Port List
  ,                                       !- Primary Daylighting Control Name
  ,                                       !- Fraction of Zone Controlled by Primary Daylighting Control
  ,                                       !- Secondary Daylighting Control Name
  ,                                       !- Fraction of Zone Controlled by Secondary Daylighting Control
  ,                                       !- Illuminance Map Name
  ,                                       !- Group Rendering Name
  {7ffdceed-349b-4159-a0d6-bbf42f36e513}, !- Thermostat Name
  No;                                     !- Use Ideal Air Loads

OS:Node,
  {b90a9fb5-3dbd-4871-8827-10fe8068defd}, !- Handle
  Node 1,                                 !- Name
  {77e50fbb-55cd-4a22-a95e-185a79eb2376}, !- Inlet Port
  ;                                       !- Outlet Port

OS:Connection,
  {77e50fbb-55cd-4a22-a95e-185a79eb2376}, !- Handle
  {1a323341-e4a3-44ae-bb0a-0db8dc8e4ca0}, !- Source Object
  11,                                     !- Outlet Port
  {b90a9fb5-3dbd-4871-8827-10fe8068defd}, !- Target Object
  2;                                      !- Inlet Port

OS:PortList,
  {2fb7d3d0-8c13-43e4-ad34-2d87f469b5e0}, !- Handle
  {1a323341-e4a3-44ae-bb0a-0db8dc8e4ca0}, !- HVAC Component
  {196fd1e1-7190-40bc-801a-cd43f3330fbd}; !- Port 1

OS:PortList,
  {f5f88cf3-442d-4ed1-8b8f-2f361a0075e8}, !- Handle
  {1a323341-e4a3-44ae-bb0a-0db8dc8e4ca0}; !- HVAC Component

OS:PortList,
  {0a11fa05-ba03-4959-a6cd-a153d8e03a42}, !- Handle
  {1a323341-e4a3-44ae-bb0a-0db8dc8e4ca0}, !- HVAC Component
  {942f1c0e-cc18-4dc9-a472-ec96094b539c}; !- Port 1

OS:Sizing:Zone,
  {508bfdab-9dbf-4ae2-ad92-082bade1aa5e}, !- Handle
  {1a323341-e4a3-44ae-bb0a-0db8dc8e4ca0}, !- Zone or ZoneList Name
  SupplyAirTemperature,                   !- Zone Cooling Design Supply Air Temperature Input Method
  14,                                     !- Zone Cooling Design Supply Air Temperature {C}
  11.11,                                  !- Zone Cooling Design Supply Air Temperature Difference {deltaC}
  SupplyAirTemperature,                   !- Zone Heating Design Supply Air Temperature Input Method
  40,                                     !- Zone Heating Design Supply Air Temperature {C}
  11.11,                                  !- Zone Heating Design Supply Air Temperature Difference {deltaC}
  0.0085,                                 !- Zone Cooling Design Supply Air Humidity Ratio {kg-H2O/kg-air}
  0.008,                                  !- Zone Heating Design Supply Air Humidity Ratio {kg-H2O/kg-air}
  ,                                       !- Zone Heating Sizing Factor
  ,                                       !- Zone Cooling Sizing Factor
  DesignDay,                              !- Cooling Design Air Flow Method
  ,                                       !- Cooling Design Air Flow Rate {m3/s}
  ,                                       !- Cooling Minimum Air Flow per Zone Floor Area {m3/s-m2}
  ,                                       !- Cooling Minimum Air Flow {m3/s}
  ,                                       !- Cooling Minimum Air Flow Fraction
  DesignDay,                              !- Heating Design Air Flow Method
  ,                                       !- Heating Design Air Flow Rate {m3/s}
  ,                                       !- Heating Maximum Air Flow per Zone Floor Area {m3/s-m2}
  ,                                       !- Heating Maximum Air Flow {m3/s}
  ,                                       !- Heating Maximum Air Flow Fraction
  No,                                     !- Account for Dedicated Outdoor Air System
  NeutralSupplyAir,                       !- Dedicated Outdoor Air System Control Strategy
  autosize,                               !- Dedicated Outdoor Air Low Setpoint Temperature for Design {C}
  autosize,                               !- Dedicated Outdoor Air High Setpoint Temperature for Design {C}
  Sensible Load Only No Latent Load,      !- Zone Load Sizing Method
  HumidityRatioDifference,                !- Zone Latent Cooling Design Supply Air Humidity Ratio Input Method
  ,                                       !- Zone Dehumidification Design Supply Air Humidity Ratio {kgWater/kgDryAir}
  0.005,                                  !- Zone Cooling Design Supply Air Humidity Ratio Difference {kgWater/kgDryAir}
  HumidityRatioDifference,                !- Zone Latent Heating Design Supply Air Humidity Ratio Input Method
  ,                                       !- Zone Humidification Design Supply Air Humidity Ratio {kgWater/kgDryAir}
  0.005,                                  !- Zone Humidification Design Supply Air Humidity Ratio Difference {kgWater/kgDryAir}
  ,                                       !- Zone Humidistat Dehumidification Set Point Schedule Name
  ,                                       !- Zone Humidistat Humidification Set Point Schedule Name
  ,                                       !- Design Zone Air Distribution Effectiveness in Cooling Mode
  ,                                       !- Design Zone Air Distribution Effectiveness in Heating Mode
  ,                                       !- Design Zone Secondary Recirculation Fraction {dimensionless}
  ,                                       !- Design Minimum Zone Ventilation Efficiency {dimensionless}
  Coincident;                             !- Sizing Option

OS:ZoneHVAC:EquipmentList,
  {b7465cc9-9cab-4df0-a102-b5974ea1a099}, !- Handle
  Zone HVAC Equipment List 1,             !- Name
  {1a323341-e4a3-44ae-bb0a-0db8dc8e4ca0}, !- Thermal Zone
  ,                                       !- Load Distribution Scheme
  {54ac6836-3130-46de-b2f4-12f5af25970c}, !- Zone Equipment 1
  1,                                      !- Zone Equipment Cooling Sequence 1
  1,                                      !- Zone Equipment Heating or No-Load Sequence 1
  {b76b5ae2-56a0-44a9-8906-b59ecaa9825d}, !- Zone Equipment Sequential Cooling Fraction Schedule Name 1
  {2df52973-5b8e-4322-a91b-cfca306cff1e}; !- Zone Equipment Sequential Heating Fraction Schedule Name 1

OS:AdditionalProperties,
  {52cd9841-52d6-411b-8938-09bd8617df28}, !- Handle
  {1a323341-e4a3-44ae-bb0a-0db8dc8e4ca0}, !- Object Name
  ObjectType,                             !- Feature Name 1
  String,                                 !- Feature Data Type 1
  conditioned space;                      !- Feature Value 1

OS:Space,
  {262a7f9e-7c25-43f4-a17c-2982ff6dc5bb}, !- Handle
  conditioned space 1,                    !- Name
  ,                                       !- Space Type Name
  ,                                       !- Default Construction Set Name
  ,                                       !- Default Schedule Set Name
  ,                                       !- Direction of Relative North {deg}
  ,                                       !- X Origin {m}
  ,                                       !- Y Origin {m}
  ,                                       !- Z Origin {m}
  ,                                       !- Building Story Name
  {1a323341-e4a3-44ae-bb0a-0db8dc8e4ca0}, !- Thermal Zone Name
  ,                                       !- Part of Total Floor Area
  ,                                       !- Design Specification Outdoor Air Object Name
  ,                                       !- Building Unit Name
  475.79381486208;                        !- Volume {m3}

OS:Schedule:Ruleset,
  {71ecb8c9-ee27-41a2-bcef-db5ca875d5fe}, !- Handle
  heating setpoint,                       !- Name
  {1e72a266-9231-410c-a84d-5419b79e7cae}, !- Schedule Type Limits Name
  {5af07910-c835-40fc-8f00-9ad90a85993a}; !- Default Day Schedule Name

OS:Schedule:Day,
  {5af07910-c835-40fc-8f00-9ad90a85993a}, !- Handle
  heating setpoint default day,           !- Name
  {1e72a266-9231-410c-a84d-5419b79e7cae}, !- Schedule Type Limits Name
  ,                                       !- Interpolate to Timestep
  24,                                     !- Hour 1
  0,                                      !- Minute 1
  0;                                      !- Value Until Time 1

OS:Schedule:Rule,
  {aed9fd6b-baba-401b-8fcd-ce1c91d6d8e4}, !- Handle
  heating setpoint allday rule,           !- Name
  {71ecb8c9-ee27-41a2-bcef-db5ca875d5fe}, !- Schedule Ruleset Name
  0,                                      !- Rule Order
  {864c9704-d9bb-4497-bac0-2d6e8e907987}, !- Day Schedule Name
  Yes,                                    !- Apply Sunday
  Yes,                                    !- Apply Monday
  Yes,                                    !- Apply Tuesday
  Yes,                                    !- Apply Wednesday
  Yes,                                    !- Apply Thursday
  Yes,                                    !- Apply Friday
  Yes,                                    !- Apply Saturday
  DateRange,                              !- Date Specification Type
  1,                                      !- Start Month
  1,                                      !- Start Day
  12,                                     !- End Month
  31;                                     !- End Day

OS:Schedule:Day,
  {864c9704-d9bb-4497-bac0-2d6e8e907987}, !- Handle
  heating setpoint day,                   !- Name
  {1e72a266-9231-410c-a84d-5419b79e7cae}, !- Schedule Type Limits Name
  ,                                       !- Interpolate to Timestep
  24,                                     !- Hour 1
  0,                                      !- Minute 1
  20;                                     !- Value Until Time 1

OS:Schedule:Ruleset,
  {6957dc2c-2211-4868-8ddb-ad7bcb6d0e0e}, !- Handle
  cooling setpoint,                       !- Name
  {1e72a266-9231-410c-a84d-5419b79e7cae}, !- Schedule Type Limits Name
  {c8f05275-40cf-452b-8029-0e482313239c}; !- Default Day Schedule Name

OS:Schedule:Day,
  {c8f05275-40cf-452b-8029-0e482313239c}, !- Handle
  cooling setpoint default day,           !- Name
  {1e72a266-9231-410c-a84d-5419b79e7cae}, !- Schedule Type Limits Name
  ,                                       !- Interpolate to Timestep
  24,                                     !- Hour 1
  0,                                      !- Minute 1
  0;                                      !- Value Until Time 1

OS:Schedule:Rule,
  {32700b94-4074-4816-98c3-385f2ab71ed9}, !- Handle
  cooling setpoint allday rule,           !- Name
  {6957dc2c-2211-4868-8ddb-ad7bcb6d0e0e}, !- Schedule Ruleset Name
  0,                                      !- Rule Order
  {18990dd0-7edf-4fb9-a66c-e789ebcc1fc3}, !- Day Schedule Name
  Yes,                                    !- Apply Sunday
  Yes,                                    !- Apply Monday
  Yes,                                    !- Apply Tuesday
  Yes,                                    !- Apply Wednesday
  Yes,                                    !- Apply Thursday
  Yes,                                    !- Apply Friday
  Yes,                                    !- Apply Saturday
  DateRange,                              !- Date Specification Type
  1,                                      !- Start Month
  1,                                      !- Start Day
  12,                                     !- End Month
  31;                                     !- End Day

OS:Schedule:Day,
  {18990dd0-7edf-4fb9-a66c-e789ebcc1fc3}, !- Handle
  cooling setpoint day,                   !- Name
  {1e72a266-9231-410c-a84d-5419b79e7cae}, !- Schedule Type Limits Name
  ,                                       !- Interpolate to Timestep
  24,                                     !- Hour 1
  0,                                      !- Minute 1
  25.5555555555556;                       !- Value Until Time 1

OS:ThermostatSetpoint:DualSetpoint,
  {7ffdceed-349b-4159-a0d6-bbf42f36e513}, !- Handle
  conditioned space temperature setpoint, !- Name
  {71ecb8c9-ee27-41a2-bcef-db5ca875d5fe}, !- Heating Setpoint Temperature Schedule Name
  {6957dc2c-2211-4868-8ddb-ad7bcb6d0e0e}, !- Cooling Setpoint Temperature Schedule Name
  0;                                      !- Temperature Difference Between Cutout And Setpoint {deltaC}

OS:ScheduleTypeLimits,
  {1e72a266-9231-410c-a84d-5419b79e7cae}, !- Handle
  Temperature,                            !- Name
  ,                                       !- Lower Limit Value
  ,                                       !- Upper Limit Value
  Continuous,                             !- Numeric Type
  Temperature;                            !- Unit Type

OS:Surface,
  {2f7cd719-ec0f-451b-a940-efc97a949db1}, !- Handle
  Roof1,                                  !- Name
  RoofCeiling,                            !- Surface Type
  {8b7d3ea3-7aab-4113-aca8-2f601e6aa792}, !- Construction Name
  {262a7f9e-7c25-43f4-a17c-2982ff6dc5bb}, !- Space Name
  Outdoors,                               !- Outside Boundary Condition
  ,                                       !- Outside Boundary Condition Object
  SunExposed,                             !- Sun Exposure
  WindExposed,                            !- Wind Exposure
  ,                                       !- View Factor to Ground
  ,                                       !- Number of Vertices
  -27.1507941683368, 33.2208099683368, 2.4384, !- X,Y,Z Vertex 1 {m}
  -27.1507941683368, 25.2543851312596, 6.42161241853859, !- X,Y,Z Vertex 2 {m}
  -18.2440604316632, 25.2543851312596, 6.42161241853859, !- X,Y,Z Vertex 3 {m}
  -18.2440604316632, 33.2208099683368, 2.4384; !- X,Y,Z Vertex 4 {m}

OS:AdditionalProperties,
  {e7ddf96c-3ae9-4006-98fb-beb37f2dc775}, !- Handle
  {2f7cd719-ec0f-451b-a940-efc97a949db1}, !- Object Name
  Length,                                 !- Feature Name 1
  Double,                                 !- Feature Data Type 1
  29.221567377538118,                     !- Feature Value 1
  Width,                                  !- Feature Name 2
  Double,                                 !- Feature Data Type 2
  29.221567377538118,                     !- Feature Value 2
  Azimuth,                                !- Feature Name 3
  Integer,                                !- Feature Data Type 3
  0,                                      !- Feature Value 3
  Tilt,                                   !- Feature Name 4
  Double,                                 !- Feature Data Type 4
  0.5,                                    !- Feature Value 4
  SurfaceType,                            !- Feature Name 5
  String,                                 !- Feature Data Type 5
  Roof;                                   !- Feature Value 5

OS:Material,
  {3c3ae50c-f8e4-46e4-978e-79e98faa282c}, !- Handle
  asphalt or fiberglass shingles,         !- Name
  Rough,                                  !- Roughness
  0.00635,                                !- Thickness {m}
  0.162714,                               !- Conductivity {W/m-K}
  1121.4,                                 !- Density {kg/m3}
  1465.45,                                !- Specific Heat {J/kg-K}
  0.9,                                    !- Thermal Absorptance
  0.85,                                   !- Solar Absorptance
  0.85;                                   !- Visible Absorptance

OS:Material,
  {632f7443-2475-4b34-991d-635453a4d02e}, !- Handle
  roof stud and cavity,                   !- Name
  Rough,                                  !- Roughness
  0.0889,                                 !- Thickness {m}
  0.468249472857624,                      !- Conductivity {W/m-K}
  50.32683,                               !- Density {kg/m3}
  1063.80987585548,                       !- Specific Heat {J/kg-K}
  0.9,                                    !- Thermal Absorptance
  0.7,                                    !- Solar Absorptance
  0.7;                                    !- Visible Absorptance

OS:Material,
  {73ccc929-d862-4890-8c4d-a988cf072bb8}, !- Handle
  gypsum board,                           !- Name
  Rough,                                  !- Roughness
  0.00254,                                !- Thickness {m}
  0.1602906,                              !- Conductivity {W/m-K}
  801,                                    !- Density {kg/m3}
  837.4,                                  !- Specific Heat {J/kg-K}
  0.9,                                    !- Thermal Absorptance
  0.6,                                    !- Solar Absorptance
  0.6;                                    !- Visible Absorptance

OS:Construction,
  {8b7d3ea3-7aab-4113-aca8-2f601e6aa792}, !- Handle
  Roof1 construction,                     !- Name
  ,                                       !- Surface Rendering Name
  {3c3ae50c-f8e4-46e4-978e-79e98faa282c}, !- Layer 1
  {632f7443-2475-4b34-991d-635453a4d02e}, !- Layer 2
  {73ccc929-d862-4890-8c4d-a988cf072bb8}; !- Layer 3

OS:Surface,
  {e2f6fc96-85f0-4379-838a-60348a7f3e85}, !- Handle
  Roof2,                                  !- Name
  RoofCeiling,                            !- Surface Type
  {7c2a1e50-834c-4a09-ac45-1269d5024695}, !- Construction Name
  {262a7f9e-7c25-43f4-a17c-2982ff6dc5bb}, !- Space Name
  Outdoors,                               !- Outside Boundary Condition
  ,                                       !- Outside Boundary Condition Object
  SunExposed,                             !- Sun Exposure
  WindExposed,                            !- Wind Exposure
  ,                                       !- View Factor to Ground
  ,                                       !- Number of Vertices
  -24.3140762316632, -33.2208099683368, 2.4384, !- X,Y,Z Vertex 1 {m}
  -24.3140762316632, -25.2543851312596, 6.42161241853859, !- X,Y,Z Vertex 2 {m}
  -33.2208099683368, -25.2543851312596, 6.42161241853859, !- X,Y,Z Vertex 3 {m}
  -33.2208099683368, -33.2208099683368, 2.4384; !- X,Y,Z Vertex 4 {m}

OS:AdditionalProperties,
  {cd84561f-cc51-4dfc-a00c-9313c8208274}, !- Handle
  {e2f6fc96-85f0-4379-838a-60348a7f3e85}, !- Object Name
  Length,                                 !- Feature Name 1
  Double,                                 !- Feature Data Type 1
  29.221567377538118,                     !- Feature Value 1
  Width,                                  !- Feature Name 2
  Double,                                 !- Feature Data Type 2
  29.221567377538118,                     !- Feature Value 2
  Azimuth,                                !- Feature Name 3
  Integer,                                !- Feature Data Type 3
  180,                                    !- Feature Value 3
  Tilt,                                   !- Feature Name 4
  Double,                                 !- Feature Data Type 4
  0.5,                                    !- Feature Value 4
  SurfaceType,                            !- Feature Name 5
  String,                                 !- Feature Data Type 5
  Roof;                                   !- Feature Value 5

OS:Construction,
  {7c2a1e50-834c-4a09-ac45-1269d5024695}, !- Handle
  Roof2 construction,                     !- Name
  ,                                       !- Surface Rendering Name
  {3c3ae50c-f8e4-46e4-978e-79e98faa282c}, !- Layer 1
  {632f7443-2475-4b34-991d-635453a4d02e}, !- Layer 2
  {73ccc929-d862-4890-8c4d-a988cf072bb8}; !- Layer 3

OS:Surface,
  {6bea6e2d-22e7-4316-97cd-4d3495bead5c}, !- Handle
  Wall1,                                  !- Name
  Wall,                                   !- Surface Type
  {96e01eda-644e-4e6e-9c4a-baf0c3138c4e}, !- Construction Name
  {262a7f9e-7c25-43f4-a17c-2982ff6dc5bb}, !- Space Name
  Outdoors,                               !- Outside Boundary Condition
  ,                                       !- Outside Boundary Condition Object
  SunExposed,                             !- Sun Exposure
  WindExposed,                            !- Wind Exposure
  ,                                       !- View Factor to Ground
  ,                                       !- Number of Vertices
  -32.2917795683368, 33.2208099683368, 0, !- X,Y,Z Vertex 1 {m}
  -32.2917795683368, 33.2208099683368, 4.8768, !- X,Y,Z Vertex 2 {m}
  -28.0798245683368, 33.2208099683368, 4.8768, !- X,Y,Z Vertex 3 {m}
  -28.0798245683368, 33.2208099683368, 0; !- X,Y,Z Vertex 4 {m}

OS:AdditionalProperties,
  {ebcb2e54-1b0c-49ff-bbe8-5771d0973649}, !- Handle
  {6bea6e2d-22e7-4316-97cd-4d3495bead5c}, !- Object Name
  Length,                                 !- Feature Name 1
  Double,                                 !- Feature Data Type 1
  13.81875,                               !- Feature Value 1
  Azimuth,                                !- Feature Name 2
  Integer,                                !- Feature Data Type 2
  0,                                      !- Feature Value 2
  Tilt,                                   !- Feature Name 3
  Double,                                 !- Feature Data Type 3
  90,                                     !- Feature Value 3
  SurfaceType,                            !- Feature Name 4
  String,                                 !- Feature Data Type 4
  Wall;                                   !- Feature Value 4

OS:Material,
  {169acd2f-7e77-4684-9009-8e85750bd050}, !- Handle
  wood siding,                            !- Name
  Rough,                                  !- Roughness
  0.0254,                                 !- Thickness {m}
  0.1024175,                              !- Conductivity {W/m-K}
  544.68,                                 !- Density {kg/m3}
  1172.36,                                !- Specific Heat {J/kg-K}
  0.9,                                    !- Thermal Absorptance
  0.7,                                    !- Solar Absorptance
  0.7;                                    !- Visible Absorptance

OS:Material,
  {fa0e7567-9bd7-4315-b713-00e2d8fd88bf}, !- Handle
  osb sheathing 0.5 in.,                  !- Name
  Rough,                                  !- Roughness
  0.0127,                                 !- Thickness {m}
  0.1154577,                              !- Conductivity {W/m-K}
  512.64,                                 !- Density {kg/m3}
  1214.23,                                !- Specific Heat {J/kg-K}
  0.9,                                    !- Thermal Absorptance
  0.7,                                    !- Solar Absorptance
  0.7;                                    !- Visible Absorptance

OS:Material,
  {e1657795-753c-4769-97b7-592ec96c1f93}, !- Handle
  wall stud and cavity,                   !- Name
  Rough,                                  !- Roughness
  0.1397,                                 !- Thickness {m}
  0.0929021674204099,                     !- Conductivity {W/m-K}
  139.0536,                               !- Density {kg/m3}
  1170.23755760369,                       !- Specific Heat {J/kg-K}
  0.9,                                    !- Thermal Absorptance
  0.7,                                    !- Solar Absorptance