
OS:Version,
  {f2f6cdc4-96f6-46a1-bc5a-80e827a38f5a}, !- Handle
  3.10.0;                                 !- Version Identifier

OS:SimulationControl,
  {45df2039-d97a-44c4-85e5-74abe83beec1}, !- Handle
  ,                                       !- Do Zone Sizing Calculation
  ,                                       !- Do System Sizing Calculation
  ,                                       !- Do Plant Sizing Calculation
  No;                                     !- Run Simulation for Sizing Periods

OS:Timestep,
  {c2b759d7-0669-4347-988a-4420ab24ecfc}, !- Handle
  1;                                      !- Number of Timesteps per Hour

OS:ShadowCalculation,
  {1033b6b4-73f0-4207-bb54-d6762767412a}, !- Handle
  PolygonClipping,                        !- Shading Calculation Method
  ,                                       !- Shading Calculation Update Frequency Method
  20,                                     !- Shading Calculation Update Frequency
  200,                                    !- Maximum Figures in Shadow Overlap Calculations
  ,                                       !- Polygon Clipping Algorithm
  512,                                    !- Pixel Counting Resolution
  ,                                       !- Sky Diffuse Modeling Algorithm
  No,                                     !- Output External Shading Calculation Results
  No,                                     !- Disable Self-Shading Within Shading Zone Groups
  No;                                     !- Disable Self-Shading From Shading Zone Groups to Other Zones

OS:SurfaceConvectionAlgorithm:Outside,
  {684495f1-60a3-4315-85ed-ce87a96f6086}, !- Handle
  DOE-2;                                  !- Algorithm

OS:SurfaceConvectionAlgorithm:Inside,
  {4cff0f6b-2912-4c0f-8d51-52b338319dfe}, !- Handle
  TARP;                                   !- Algorithm

OS:ZoneCapacitanceMultiplier:ResearchSpecial,
  {ace49e88-1c88-4793-80d3-da2b7f500871}, !- Handle
  7,                                      !- Temperature Capacity Multiplier
  15,                                     !- Humidity Capacity Multiplier
  ;                                       !- Carbon Dioxide Capacity Multiplier

OS:ConvergenceLimits,
  {24e41e5d-5040-4fab-8c09-b52fe3032d0b}, !- Handle
  0;                                      !- Minimum System Timestep {minutes}

OS:RunPeriod,
  {d884070c-d035-4d37-892e-5140b1c12bef}, !- Handle
  Run Period 1,                           !- Name
  1,                                      !- Begin Month
  1,                                      !- Begin Day of Month
  12,                                     !- End Month
  31,                                     !- End Day of Month
  ,                                       !- Use Weather File Holidays and Special Days
  ,                                       !- Use Weather File Daylight Saving Period
  ,                                       !- Apply Weekend Holiday Rule
  ,                                       !- Use Weather File Rain Indicators
  ,                                       !- Use Weather File Snow Indicators
  ;                                       !- Number of Times Runperiod to be Repeated

OS:PerformancePrecisionTradeoffs,
  {c9161ba7-3970-461e-aba6-bc1ff3e933ee}, !- Handle
  ,                                       !- Use Coil Direct Solutions
  CarrollMRT;                             !- Zone Radiant Exchange Algorithm

OS:WeatherFile,
  {227341d7-3b9d-42e6-8dd9-82561920031a}, !- Handle
  Buffalo Niagara Intl Ap,                !- City
  NY,                                     !- State Province Region
  USA,                                    !- Country
  TMY3,                                   !- Data Source
  725280,                                 !- WMO Number
  42.93,                                  !- Latitude {deg}
  -78.73,                                 !- Longitude {deg}
  -5,                                     !- Time Zone {hr}
  215,                                    !- Elevation {m}
  /Users/nmoore/github/urbanopt-example-geojson-project/example_project/weather/USA_NY_Buffalo-Greater.Buffalo.Intl.AP.725280_TMY3.epw, !- Url
  6B50E0FF,                               !- Checksum
  ,                                       !- Start Date Actual Year
  Sunday;                                 !- Start Day of Week

OS:YearDescription,
  {c4aa09f5-49fd-49f4-95a2-2513c3111bcf}, !- Handle
  2007,                                   !- Calendar Year
  ,                                       !- Day of Week for Start Day
  ;                                       !- Is Leap Year

OS:Site,
  {a4d389db-d09e-41b5-bc27-ed47b19fe0e3}, !- Handle
  Buffalo Niagara Intl Ap_NY,             !- Name
  42.93,                                  !- Latitude {deg}
  -78.73,                                 !- Longitude {deg}
  -5,                                     !- Time Zone {hr}
  215,                                    !- Elevation {m}
  Suburbs,                                !- Terrain
  Yes;                                    !- Keep Site Location Information

OS:RunPeriodControl:DaylightSavingTime,
  {cc132a20-34c3-4225-bf37-d2404ab9a662}, !- Handle
  Mar 12,                                 !- Start Date
  Nov 5;                                  !- End Date

OS:Site:GroundTemperature:Shallow,
  {eb88ffb3-611e-48b6-860a-011bdc2e22ab}, !- Handle
  4.30207395723828,                       !- January Surface Ground Temperature {C}
  2.29327249652502,                       !- February Surface Ground Temperature {C}
  2.13240047156047,                       !- March Surface Ground Temperature {C}
  3.08567940719286,                       !- April Surface Ground Temperature {C}
  6.91256312497526,                       !- May Surface Ground Temperature {C}
  10.7216195949507,                       !- June Surface Ground Temperature {C}
  14.0238679822574,                       !- July Surface Ground Temperature {C}
  16.1157611184724,                       !- August Surface Ground Temperature {C}
  16.2934789303462,                       !- September Surface Ground Temperature {C}
  14.5920754632847,                       !- October Surface Ground Temperature {C}
  11.374036348653,                        !- November Surface Ground Temperature {C}
  7.68182621661674;                       !- December Surface Ground Temperature {C}

OS:ThermalZone,
  {dfc20b33-e648-419f-8490-c8bd91cc16dc}, !- Handle
  conditioned space,                      !- Name
  1,                                      !- Multiplier
  ,                                       !- Ceiling Height {m}
  692.06373070848,                        !- Volume {m3}
  ,                                       !- Floor Area {m2}
  ,                                       !- Zone Inside Convection Algorithm
  ,                                       !- Zone Outside Convection Algorithm
  ,                                       !- Zone Conditioning Equipment List Name
  {7cc12093-98c1-4bd2-b6b5-b2af7a9939ec}, !- Zone Air Inlet Port List
  {694f05a0-b58e-4295-acfd-8667854f8cc5}, !- Zone Air Exhaust Port List
  {9bb31ec7-d162-4390-8356-53f483a1ec55}, !- Zone Air Node Name
  {ec5cb2b2-446e-48be-9757-55aa6fecd4af}, !- Zone Return Air Port List
  ,                                       !- Primary Daylighting Control Name
  ,                                       !- Fraction of Zone Controlled by Primary Daylighting Control
  ,                                       !- Secondary Daylighting Control Name
  ,                                       !- Fraction of Zone Controlled by Secondary Daylighting Control
  ,                                       !- Illuminance Map Name
  ,                                       !- Group Rendering Name
  {805c7e5e-91e5-4aa0-af7e-514a919874d0}, !- Thermostat Name
  No;                                     !- Use Ideal Air Loads

OS:Node,
  {78b55395-491b-4bab-a12c-2481387346c3}, !- Handle
  Node 1,                                 !- Name
  {9bb31ec7-d162-4390-8356-53f483a1ec55}, !- Inlet Port
  ;                                       !- Outlet Port

OS:Connection,
  {9bb31ec7-d162-4390-8356-53f483a1ec55}, !- Handle
  {dfc20b33-e648-419f-8490-c8bd91cc16dc}, !- Source Object
  11,                                     !- Outlet Port
  {78b55395-491b-4bab-a12c-2481387346c3}, !- Target Object
  2;                                      !- Inlet Port

OS:PortList,
  {7cc12093-98c1-4bd2-b6b5-b2af7a9939ec}, !- Handle
  {dfc20b33-e648-419f-8490-c8bd91cc16dc}, !- HVAC Component
  {0c138fd0-d36f-4401-ad25-046b2da0629b}; !- Port 1

OS:PortList,
  {694f05a0-b58e-4295-acfd-8667854f8cc5}, !- Handle
  {dfc20b33-e648-419f-8490-c8bd91cc16dc}; !- HVAC Component

OS:PortList,
  {ec5cb2b2-446e-48be-9757-55aa6fecd4af}, !- Handle
  {dfc20b33-e648-419f-8490-c8bd91cc16dc}, !- HVAC Component
  {9627f077-29b9-4870-8bc8-4d5584bbe742}; !- Port 1

OS:Sizing:Zone,
  {da1c82dc-e42b-4312-a6cf-3436808e45e9}, !- Handle
  {dfc20b33-e648-419f-8490-c8bd91cc16dc}, !- Zone or ZoneList Name
  SupplyAirTemperature,                   !- Zone Cooling Design Supply Air Temperature Input Method
  14,                                     !- Zone Cooling Design Supply Air Temperature {C}
  11.11,                                  !- Zone Cooling Design Supply Air Temperature Difference {deltaC}
  SupplyAirTemperature,                   !- Zone Heating Design Supply Air Temperature Input Method
  40,                                     !- Zone Heating Design Supply Air Temperature {C}
  11.11,                                  !- Zone Heating Design Supply Air Temperature Difference {deltaC}
  0.0085,                                 !- Zone Cooling Design Supply Air Humidity Ratio {kg-H2O/kg-air}
  0.008,                                  !- Zone Heating Design Supply Air Humidity Ratio {kg-H2O/kg-air}
  ,                                       !- Zone Heating Sizing Factor
  ,                                       !- Zone Cooling Sizing Factor
  DesignDay,                              !- Cooling Design Air Flow Method
  ,                                       !- Cooling Design Air Flow Rate {m3/s}
  ,                                       !- Cooling Minimum Air Flow per Zone Floor Area {m3/s-m2}
  ,                                       !- Cooling Minimum Air Flow {m3/s}
  ,                                       !- Cooling Minimum Air Flow Fraction
  DesignDay,                              !- Heating Design Air Flow Method
  ,                                       !- Heating Design Air Flow Rate {m3/s}
  ,                                       !- Heating Maximum Air Flow per Zone Floor Area {m3/s-m2}
  ,                                       !- Heating Maximum Air Flow {m3/s}
  ,                                       !- Heating Maximum Air Flow Fraction
  No,                                     !- Account for Dedicated Outdoor Air System
  NeutralSupplyAir,                       !- Dedicated Outdoor Air System Control Strategy
  autosize,                               !- Dedicated Outdoor Air Low Setpoint Temperature for Design {C}
  autosize,                               !- Dedicated Outdoor Air High Setpoint Temperature for Design {C}
  Sensible Load Only No Latent Load,      !- Zone Load Sizing Method
  HumidityRatioDifference,                !- Zone Latent Cooling Design Supply Air Humidity Ratio Input Method
  ,                                       !- Zone Dehumidification Design Supply Air Humidity Ratio {kgWater/kgDryAir}
  0.005,                                  !- Zone Cooling Design Supply Air Humidity Ratio Difference {kgWater/kgDryAir}
  HumidityRatioDifference,                !- Zone Latent Heating Design Supply Air Humidity Ratio Input Method
  ,                                       !- Zone Humidification Design Supply Air Humidity Ratio {kgWater/kgDryAir}
  0.005,                                  !- Zone Humidification Design Supply Air Humidity Ratio Difference {kgWater/kgDryAir}
  ,                                       !- Zone Humidistat Dehumidification Set Point Schedule Name
  ,                                       !- Zone Humidistat Humidification Set Point Schedule Name
  ,                                       !- Design Zone Air Distribution Effectiveness in Cooling Mode
  ,                                       !- Design Zone Air Distribution Effectiveness in Heating Mode
  ,                                       !- Design Zone Secondary Recirculation Fraction {dimensionless}
  ,                                       !- Design Minimum Zone Ventilation Efficiency {dimensionless}
  Coincident;                             !- Sizing Option

OS:ZoneHVAC:EquipmentList,
  {a1665e4d-a919-44d8-ac09-9c4cfeb8c07b}, !- Handle
  Zone HVAC Equipment List 1,             !- Name
  {dfc20b33-e648-419f-8490-c8bd91cc16dc}, !- Thermal Zone
  ,                                       !- Load Distribution Scheme
  {23367634-51a1-4198-9fde-18c22d42e4c3}, !- Zone Equipment 1
  1,                                      !- Zone Equipment Cooling Sequence 1
  1,                                      !- Zone Equipment Heating or No-Load Sequence 1
  {c129e19a-f9c3-490f-85ab-29cc75fbe82b}, !- Zone Equipment Sequential Cooling Fraction Schedule Name 1
  {87db67b6-fa2e-4056-bea1-a1e77837a89e}; !- Zone Equipment Sequential Heating Fraction Schedule Name 1

OS:AdditionalProperties,
  {5f5b7d96-dc83-4c16-ab84-2fbcd7614e95}, !- Handle
  {dfc20b33-e648-419f-8490-c8bd91cc16dc}, !- Object Name
  ObjectType,                             !- Feature Name 1
  String,                                 !- Feature Data Type 1
  conditioned space;                      !- Feature Value 1

OS:Space,
  {dbe21c20-29fb-4158-93f3-a3c172dea2d0}, !- Handle
  conditioned space 1,                    !- Name
  ,                                       !- Space Type Name
  ,                                       !- Default Construction Set Name
  ,                                       !- Default Schedule Set Name
  ,                                       !- Direction of Relative North {deg}
  ,                                       !- X Origin {m}
  ,                                       !- Y Origin {m}
  ,                                       !- Z Origin {m}
  ,                                       !- Building Story Name
  {dfc20b33-e648-419f-8490-c8bd91cc16dc}, !- Thermal Zone Name
  ,                                       !- Part of Total Floor Area
  ,                                       !- Design Specification Outdoor Air Object Name
  ,                                       !- Building Unit Name
  692.06373070848;                        !- Volume {m3}

OS:Schedule:Ruleset,
  {37030b65-c7e6-4299-aa7c-d9ede08dfe5d}, !- Handle
  heating setpoint,                       !- Name
  {6a5b6e6a-de72-403c-95c2-4bf5c7d792e0}, !- Schedule Type Limits Name
  {18e7e78b-10f3-411f-a16c-aaa5fee84217}; !- Default Day Schedule Name

OS:Schedule:Day,
  {18e7e78b-10f3-411f-a16c-aaa5fee84217}, !- Handle
  heating setpoint default day,           !- Name
  {6a5b6e6a-de72-403c-95c2-4bf5c7d792e0}, !- Schedule Type Limits Name
  ,                                       !- Interpolate to Timestep
  24,                                     !- Hour 1
  0,                                      !- Minute 1
  0;                                      !- Value Until Time 1

OS:Schedule:Rule,
  {b75ad668-89cb-4588-ae77-afd34b902663}, !- Handle
  heating setpoint allday rule,           !- Name
  {37030b65-c7e6-4299-aa7c-d9ede08dfe5d}, !- Schedule Ruleset Name
  0,                                      !- Rule Order
  {11d6d0f2-0537-4895-9d41-a14c6a5e1b29}, !- Day Schedule Name
  Yes,                                    !- Apply Sunday
  Yes,                                    !- Apply Monday
  Yes,                                    !- Apply Tuesday
  Yes,                                    !- Apply Wednesday
  Yes,                                    !- Apply Thursday
  Yes,                                    !- Apply Friday
  Yes,                                    !- Apply Saturday
  DateRange,                              !- Date Specification Type
  1,                                      !- Start Month
  1,                                      !- Start Day
  12,                                     !- End Month
  31;                                     !- End Day

OS:Schedule:Day,
  {11d6d0f2-0537-4895-9d41-a14c6a5e1b29}, !- Handle
  heating setpoint day,                   !- Name
  {6a5b6e6a-de72-403c-95c2-4bf5c7d792e0}, !- Schedule Type Limits Name
  ,                                       !- Interpolate to Timestep
  24,                                     !- Hour 1
  0,                                      !- Minute 1
  20;                                     !- Value Until Time 1

OS:Schedule:Ruleset,
  {299a94c9-e418-4371-9759-00cc5890785d}, !- Handle
  cooling setpoint,                       !- Name
  {6a5b6e6a-de72-403c-95c2-4bf5c7d792e0}, !- Schedule Type Limits Name
  {a1018dce-e2dd-408d-90f8-48d8090a0b12}; !- Default Day Schedule Name

OS:Schedule:Day,
  {a1018dce-e2dd-408d-90f8-48d8090a0b12}, !- Handle
  cooling setpoint default day,           !- Name
  {6a5b6e6a-de72-403c-95c2-4bf5c7d792e0}, !- Schedule Type Limits Name
  ,                                       !- Interpolate to Timestep
  24,                                     !- Hour 1
  0,                                      !- Minute 1
  0;                                      !- Value Until Time 1

OS:Schedule:Rule,
  {73ab760d-da26-47f5-8472-40c27920970f}, !- Handle
  cooling setpoint allday rule,           !- Name
  {299a94c9-e418-4371-9759-00cc5890785d}, !- Schedule Ruleset Name
  0,                                      !- Rule Order
  {31645456-83a1-470e-9d49-d0f2acb5222d}, !- Day Schedule Name
  Yes,                                    !- Apply Sunday
  Yes,                                    !- Apply Monday
  Yes,                                    !- Apply Tuesday
  Yes,                                    !- Apply Wednesday
  Yes,                                    !- Apply Thursday
  Yes,                                    !- Apply Friday
  Yes,                                    !- Apply Saturday
  DateRange,                              !- Date Specification Type
  1,                                      !- Start Month
  1,                                      !- Start Day
  12,                                     !- End Month
  31;                                     !- End Day

OS:Schedule:Day,
  {31645456-83a1-470e-9d49-d0f2acb5222d}, !- Handle
  cooling setpoint day,                   !- Name
  {6a5b6e6a-de72-403c-95c2-4bf5c7d792e0}, !- Schedule Type Limits Name
  ,                                       !- Interpolate to Timestep
  24,                                     !- Hour 1
  0,                                      !- Minute 1
  25.5555555555556;                       !- Value Until Time 1

OS:ThermostatSetpoint:DualSetpoint,
  {805c7e5e-91e5-4aa0-af7e-514a919874d0}, !- Handle
  conditioned space temperature setpoint, !- Name
  {37030b65-c7e6-4299-aa7c-d9ede08dfe5d}, !- Heating Setpoint Temperature Schedule Name
  {299a94c9-e418-4371-9759-00cc5890785d}, !- Cooling Setpoint Temperature Schedule Name
  0;                                      !- Temperature Difference Between Cutout And Setpoint {deltaC}

OS:ScheduleTypeLimits,
  {6a5b6e6a-de72-403c-95c2-4bf5c7d792e0}, !- Handle
  Temperature,                            !- Name
  ,                                       !- Lower Limit Value
  ,                                       !- Upper Limit Value
  Continuous,                             !- Numeric Type
  Temperature;                            !- Unit Type

OS:Surface,
  {1ff2e41e-aeed-4dfe-b30b-a96722b6a652}, !- Handle
  Roof1,                                  !- Name
  RoofCeiling,                            !- Surface Type
  {75f718d9-24d8-48cd-8d68-bb5c63346f77}, !- Construction Name
  {8494334d-9ec6-4ef9-b388-56faae8503c3}, !- Space Name
  Outdoors,                               !- Outside Boundary Condition
  ,                                       !- Outside Boundary Condition Object
  SunExposed,                             !- Sun Exposure
  WindExposed,                            !- Wind Exposure
  ,                                       !- View Factor to Ground
  ,                                       !- Number of Vertices
  -26.9347048849634, 58.0557891618865, 2.4384, !- X,Y,Z Vertex 1 {m}
  -26.9347048849634, 46.7895631136661, 8.0715130241102, !- X,Y,Z Vertex 2 {m}
  -14.3386812381136, 46.7895631136661, 8.0715130241102, !- X,Y,Z Vertex 3 {m}
  -14.3386812381136, 58.0557891618865, 2.4384; !- X,Y,Z Vertex 4 {m}

OS:AdditionalProperties,
  {1af7c28b-de2a-4dd2-b44a-6461efe138c1}, !- Handle
  {1ff2e41e-aeed-4dfe-b30b-a96722b6a652}, !- Object Name
  Length,                                 !- Feature Name 1
  Double,                                 !- Feature Data Type 1
  41.325536899113608,                     !- Feature Value 1
  Width,                                  !- Feature Name 2
  Double,                                 !- Feature Data Type 2
  41.325536899113601,                     !- Feature Value 2
  Azimuth,                                !- Feature Name 3
  Integer,                                !- Feature Data Type 3
  0,                                      !- Feature Value 3
  Tilt,                                   !- Feature Name 4
  Double,                                 !- Feature Data Type 4
  0.5,                                    !- Feature Value 4
  SurfaceType,                            !- Feature Name 5
  String,                                 !- Feature Data Type 5
  Roof;                                   !- Feature Value 5

OS:ThermalZone,
  {9765a1da-226f-450a-8885-b70b29dce328}, !- Handle
  attic - vented,                         !- Name
  1,                                      !- Multiplier
  ,                                       !- Ceiling Height {m}
  356.390921899745,                       !- Volume {m3}
  ,                                       !- Floor Area {m2}
  ,                                       !- Zone Inside Convection Algorithm
  ,                                       !- Zone Outside Convection Algorithm
  ,                                       !- Zone Conditioning Equipment List Name
  {599db031-3c67-4e06-a65a-5f2a76eda4fb}, !- Zone Air Inlet Port List
  {0b4c2c07-6ca1-4c85-9235-27bf510e6f19}, !- Zone Air Exhaust Port List
  {64c3ef40-e566-4ea3-a4e2-58b22c714791}, !- Zone Air Node Name
  {2b529a3b-c0d3-4ff7-8fb5-16b6980960e4}, !- Zone Return Air Port List
  ,                                       !- Primary Daylighting Control Name
  ,                                       !- Fraction of Zone Controlled by Primary Daylighting Control
  ,                                       !- Secondary Daylighting Control Name
  ,                                       !- Fraction of Zone Controlled by Secondary Daylighting Control
  ,                                       !- Illuminance Map Name
  ,                                       !- Group Rendering Name
  ,                                       !- Thermostat Name
  No;                                     !- Use Ideal Air Loads

OS:Node,
  {0f234a14-ca98-43d1-ac56-dc4b7f5c2470}, !- Handle
  Node 2,                                 !- Name
  {64c3ef40-e566-4ea3-a4e2-58b22c714791}, !- Inlet Port
  ;                                       !- Outlet Port

OS:Connection,
  {64c3ef40-e566-4ea3-a4e2-58b22c714791}, !- Handle
  {9765a1da-226f-450a-8885-b70b29dce328}, !- Source Object
  11,                                     !- Outlet Port
  {0f234a14-ca98-43d1-ac56-dc4b7f5c2470}, !- Target Object
  2;                                      !- Inlet Port

OS:PortList,
  {599db031-3c67-4e06-a65a-5f2a76eda4fb}, !- Handle
  {9765a1da-226f-450a-8885-b70b29dce328}; !- HVAC Component

OS:PortList,
  {0b4c2c07-6ca1-4c85-9235-27bf510e6f19}, !- Handle
  {9765a1da-226f-450a-8885-b70b29dce328}; !- HVAC Component

OS:PortList,
  {2b529a3b-c0d3-4ff7-8fb5-16b6980960e4}, !- Handle
  {9765a1da-226f-450a-8885-b70b29dce328}; !- HVAC Component

OS:Sizing:Zone,
  {cafa00d3-eade-4ab6-a8bb-a37ca6c58992}, !- Handle
  {9765a1da-226f-450a-8885-b70b29dce328}, !- Zone or ZoneList Name
  SupplyAirTemperature,                   !- Zone Cooling Design Supply Air Temperature Input Method
  14,                                     !- Zone Cooling Design Supply Air Temperature {C}
  11.11,                                  !- Zone Cooling Design Supply Air Temperature Difference {deltaC}
  SupplyAirTemperature,                   !- Zone Heating Design Supply Air Temperature Input Method
  40,                                     !- Zone Heating Design Supply Air Temperature {C}
  11.11,                                  !- Zone Heating Design Supply Air Temperature Difference {deltaC}
  0.0085,                                 !- Zone Cooling Design Supply Air Humidity Ratio {kg-H2O/kg-air}
  0.008,                                  !- Zone Heating Design Supply Air Humidity Ratio {kg-H2O/kg-air}
  ,                                       !- Zone Heating Sizing Factor
  ,                                       !- Zone Cooling Sizing Factor
  DesignDay,                              !- Cooling Design Air Flow Method
  ,                                       !- Cooling Design Air Flow Rate {m3/s}
  ,                                       !- Cooling Minimum Air Flow per Zone Floor Area {m3/s-m2}
  ,                                       !- Cooling Minimum Air Flow {m3/s}
  ,                                       !- Cooling Minimum Air Flow Fraction
  DesignDay,                              !- Heating Design Air Flow Method
  ,                                       !- Heating Design Air Flow Rate {m3/s}
  ,                                       !- Heating Maximum Air Flow per Zone Floor Area {m3/s-m2}
  ,                                       !- Heating Maximum Air Flow {m3/s}
  ,                                       !- Heating Maximum Air Flow Fraction
  No,                                     !- Account for Dedicated Outdoor Air System
  NeutralSupplyAir,                       !- Dedicated Outdoor Air System Control Strategy
  autosize,                               !- Dedicated Outdoor Air Low Setpoint Temperature for Design {C}
  autosize,                               !- Dedicated Outdoor Air High Setpoint Temperature for Design {C}
  Sensible Load Only No Latent Load,      !- Zone Load Sizing Method
  HumidityRatioDifference,                !- Zone Latent Cooling Design Supply Air Humidity Ratio Input Method
  ,                                       !- Zone Dehumidification Design Supply Air Humidity Ratio {kgWater/kgDryAir}
  0.005,                                  !- Zone Cooling Design Supply Air Humidity Ratio Difference {kgWater/kgDryAir}
  HumidityRatioDifference,                !- Zone Latent Heating Design Supply Air Humidity Ratio Input Method
  ,                                       !- Zone Humidification Design Supply Air Humidity Ratio {kgWater/kgDryAir}
  0.005,                                  !- Zone Humidification Design Supply Air Humidity Ratio Difference {kgWater/kgDryAir}
  ,                                       !- Zone Humidistat Dehumidification Set Point Schedule Name
  ,                                       !- Zone Humidistat Humidification Set Point Schedule Name
  ,                                       !- Design Zone Air Distribution Effectiveness in Cooling Mode
  ,                                       !- Design Zone Air Distribution Effectiveness in Heating Mode
  ,                                       !- Design Zone Secondary Recirculation Fraction {dimensionless}
  ,                                       !- Design Minimum Zone Ventilation Efficiency {dimensionless}
  Coincident;                             !- Sizing Option

OS:ZoneHVAC:EquipmentList,
  {3c687f5a-f3c6-4c7a-9869-1821d61dedda}, !- Handle
  Zone HVAC Equipment List 2,             !- Name
  {9765a1da-226f-450a-8885-b70b29dce328}; !- Thermal Zone

OS:AdditionalProperties,
  {88e0dfcb-e7a0-4cc9-b327-acf69c9221b7}, !- Handle
  {9765a1da-226f-450a-8885-b70b29dce328}, !- Object Name
  ObjectType,                             !- Feature Name 1
  String,                                 !- Feature Data Type 1
  attic - vented;                         !- Feature Value 1

OS:Space,
  {8494334d-9ec6-4ef9-b388-56faae8503c3}, !- Handle
  attic - vented 1,                       !- Name
  ,                                       !- Space Type Name
  ,                                       !- Default Construction Set Name
  ,                                       !- Default Schedule Set Name
  ,                                       !- Direction of Relative North {deg}
  ,                                       !- X Origin {m}
  ,                                       !- Y Origin {m}
  ,                                       !- Z Origin {m}
  ,                                       !- Building Story Name
  {9765a1da-226f-450a-8885-b70b29dce328}, !- Thermal Zone Name
  ,                                       !- Part of Total Floor Area
  ,                                       !- Design Specification Outdoor Air Object Name
  ,                                       !- Building Unit Name
  356.390921899745;                       !- Volume {m3}

OS:Material,
  {2a338838-6e36-4d8e-9d5f-948e9ac54a43}, !- Handle
  asphalt or fiberglass shingles,         !- Name
  Rough,                                  !- Roughness
  0.00635,                                !- Thickness {m}
  0.162714,                               !- Conductivity {W/m-K}
  1121.4,                                 !- Density {kg/m3}
  1465.45,                                !- Specific Heat {J/kg-K}
  0.9,                                    !- Thermal Absorptance
  0.85,                                   !- Solar Absorptance