
OS:Version,
  {c73991e8-10cc-424e-b5c7-0940849d8019}, !- Handle
  3.9.0;                                  !- Version Identifier

OS:SimulationControl,
  {71b364d8-1dbc-4fc2-8588-f136469cee63}, !- Handle
  ,                                       !- Do Zone Sizing Calculation
  ,                                       !- Do System Sizing Calculation
  ,                                       !- Do Plant Sizing Calculation
  No;                                     !- Run Simulation for Sizing Periods

OS:Timestep,
  {b4f9f08c-70d9-4d89-93b9-ec38971b1e2e}, !- Handle
  1;                                      !- Number of Timesteps per Hour

OS:ShadowCalculation,
  {6115d0c3-7193-4dbc-9a82-dd9af6f836f3}, !- Handle
  PolygonClipping,                        !- Shading Calculation Method
  ,                                       !- Shading Calculation Update Frequency Method
  20,                                     !- Shading Calculation Update Frequency
  200,                                    !- Maximum Figures in Shadow Overlap Calculations
  ,                                       !- Polygon Clipping Algorithm
  512,                                    !- Pixel Counting Resolution
  ,                                       !- Sky Diffuse Modeling Algorithm
  No,                                     !- Output External Shading Calculation Results
  No,                                     !- Disable Self-Shading Within Shading Zone Groups
  No;                                     !- Disable Self-Shading From Shading Zone Groups to Other Zones

OS:SurfaceConvectionAlgorithm:Outside,
  {49d6d4c7-247c-4824-aa15-0d1c86cb00fa}, !- Handle
  DOE-2;                                  !- Algorithm

OS:SurfaceConvectionAlgorithm:Inside,
  {1ad060e3-777e-4db5-a20c-fe11bad996b7}, !- Handle
  TARP;                                   !- Algorithm

OS:ZoneCapacitanceMultiplier:ResearchSpecial,
  {c44045f6-177c-4a54-8320-1d1a545187bf}, !- Handle
  7,                                      !- Temperature Capacity Multiplier
  15,                                     !- Humidity Capacity Multiplier
  ;                                       !- Carbon Dioxide Capacity Multiplier

OS:ConvergenceLimits,
  {5f6877e1-b3bd-4bd6-82f4-43aa428e2975}, !- Handle
  0;                                      !- Minimum System Timestep {minutes}

OS:RunPeriod,
  {5a7477fa-65f8-4c9c-bc0f-e5f4c370edce}, !- Handle
  Run Period 1,                           !- Name
  1,                                      !- Begin Month
  1,                                      !- Begin Day of Month
  12,                                     !- End Month
  31,                                     !- End Day of Month
  ,                                       !- Use Weather File Holidays and Special Days
  ,                                       !- Use Weather File Daylight Saving Period
  ,                                       !- Apply Weekend Holiday Rule
  ,                                       !- Use Weather File Rain Indicators
  ,                                       !- Use Weather File Snow Indicators
  ;                                       !- Number of Times Runperiod to be Repeated

OS:PerformancePrecisionTradeoffs,
  {824c88ad-4537-47d9-ad0f-ff72648c223d}, !- Handle
  ,                                       !- Use Coil Direct Solutions
  CarrollMRT;                             !- Zone Radiant Exchange Algorithm

OS:WeatherFile,
  {f84b4799-a118-4f18-b99d-c0ac457260e3}, !- Handle
  Buffalo Niagara Intl Ap,                !- City
  NY,                                     !- State Province Region
  USA,                                    !- Country
  TMY3,                                   !- Data Source
  725280,                                 !- WMO Number
  42.93,                                  !- Latitude {deg}
  -78.73,                                 !- Longitude {deg}
  -5,                                     !- Time Zone {hr}
  215,                                    !- Elevation {m}
  /Users/nmoore/github/urbanopt-example-geojson-project/example_project/weather/USA_NY_Buffalo-Greater.Buffalo.Intl.AP.725280_TMY3.epw, !- Url
  6B50E0FF,                               !- Checksum
  ,                                       !- Start Date Actual Year
  Sunday;                                 !- Start Day of Week

OS:YearDescription,
  {b2cebbfb-68f9-428e-ab2c-52a7eb3d6153}, !- Handle
  2007,                                   !- Calendar Year
  ,                                       !- Day of Week for Start Day
  ;                                       !- Is Leap Year

OS:Site,
  {b362c2ee-835f-4b0a-8ff2-82f7d8e817d0}, !- Handle
  Buffalo Niagara Intl Ap_NY,             !- Name
  42.93,                                  !- Latitude {deg}
  -78.73,                                 !- Longitude {deg}
  -5,                                     !- Time Zone {hr}
  215,                                    !- Elevation {m}
  Suburbs,                                !- Terrain
  Yes;                                    !- Keep Site Location Information

OS:RunPeriodControl:DaylightSavingTime,
  {e4898ca0-2576-4177-af82-8ce8070b8622}, !- Handle
  Mar 12,                                 !- Start Date
  Nov 5;                                  !- End Date

OS:Site:GroundTemperature:Shallow,
  {6bf1fd7e-efc1-4e9d-a55c-fe9ff4be8be8}, !- Handle
  4.30207395723828,                       !- January Surface Ground Temperature {C}
  2.29327249652502,                       !- February Surface Ground Temperature {C}
  2.13240047156047,                       !- March Surface Ground Temperature {C}
  3.08567940719286,                       !- April Surface Ground Temperature {C}
  6.91256312497526,                       !- May Surface Ground Temperature {C}
  10.7216195949507,                       !- June Surface Ground Temperature {C}
  14.0238679822574,                       !- July Surface Ground Temperature {C}
  16.1157611184724,                       !- August Surface Ground Temperature {C}
  16.2934789303462,                       !- September Surface Ground Temperature {C}
  14.5920754632847,                       !- October Surface Ground Temperature {C}
  11.374036348653,                        !- November Surface Ground Temperature {C}
  7.68182621661674;                       !- December Surface Ground Temperature {C}

OS:ThermalZone,
  {3da48041-a257-43fd-9a1e-1f37a1cb5028}, !- Handle
  conditioned space,                      !- Name
  1,                                      !- Multiplier
  ,                                       !- Ceiling Height {m}
  692.06373070848,                        !- Volume {m3}
  ,                                       !- Floor Area {m2}
  ,                                       !- Zone Inside Convection Algorithm
  ,                                       !- Zone Outside Convection Algorithm
  ,                                       !- Zone Conditioning Equipment List Name
  {fe76286e-3df5-4ed2-9cb0-7c5b33b1886e}, !- Zone Air Inlet Port List
  {2a6050a8-dfec-44b7-bac7-0f6e08f9bbc4}, !- Zone Air Exhaust Port List
  {c99fdcd1-44c9-4323-8222-30a606a8d73b}, !- Zone Air Node Name
  {b32d195e-98d1-42ef-951c-9888f96e85f8}, !- Zone Return Air Port List
  ,                                       !- Primary Daylighting Control Name
  ,                                       !- Fraction of Zone Controlled by Primary Daylighting Control
  ,                                       !- Secondary Daylighting Control Name
  ,                                       !- Fraction of Zone Controlled by Secondary Daylighting Control
  ,                                       !- Illuminance Map Name
  ,                                       !- Group Rendering Name
  {ed4c2096-4e04-4dbb-982d-8f516c826992}, !- Thermostat Name
  No;                                     !- Use Ideal Air Loads

OS:Node,
  {319e4b43-aa85-48c5-a2d5-a2d33bc13d0a}, !- Handle
  Node 1,                                 !- Name
  {c99fdcd1-44c9-4323-8222-30a606a8d73b}, !- Inlet Port
  ;                                       !- Outlet Port

OS:Connection,
  {c99fdcd1-44c9-4323-8222-30a606a8d73b}, !- Handle
  {3da48041-a257-43fd-9a1e-1f37a1cb5028}, !- Source Object
  11,                                     !- Outlet Port
  {319e4b43-aa85-48c5-a2d5-a2d33bc13d0a}, !- Target Object
  2;                                      !- Inlet Port

OS:PortList,
  {fe76286e-3df5-4ed2-9cb0-7c5b33b1886e}, !- Handle
  {3da48041-a257-43fd-9a1e-1f37a1cb5028}, !- HVAC Component
  {1001fe8d-b6a0-483f-a8d7-e3602f95483b}; !- Port 1

OS:PortList,
  {2a6050a8-dfec-44b7-bac7-0f6e08f9bbc4}, !- Handle
  {3da48041-a257-43fd-9a1e-1f37a1cb5028}; !- HVAC Component

OS:PortList,
  {b32d195e-98d1-42ef-951c-9888f96e85f8}, !- Handle
  {3da48041-a257-43fd-9a1e-1f37a1cb5028}, !- HVAC Component
  {70730c88-1a6b-4c35-97a4-ed20188934c8}; !- Port 1

OS:Sizing:Zone,
  {1ad608ad-98f5-4c89-9716-cd5ca18be634}, !- Handle
  {3da48041-a257-43fd-9a1e-1f37a1cb5028}, !- Zone or ZoneList Name
  SupplyAirTemperature,                   !- Zone Cooling Design Supply Air Temperature Input Method
  14,                                     !- Zone Cooling Design Supply Air Temperature {C}
  11.11,                                  !- Zone Cooling Design Supply Air Temperature Difference {deltaC}
  SupplyAirTemperature,                   !- Zone Heating Design Supply Air Temperature Input Method
  40,                                     !- Zone Heating Design Supply Air Temperature {C}
  11.11,                                  !- Zone Heating Design Supply Air Temperature Difference {deltaC}
  0.0085,                                 !- Zone Cooling Design Supply Air Humidity Ratio {kg-H2O/kg-air}
  0.008,                                  !- Zone Heating Design Supply Air Humidity Ratio {kg-H2O/kg-air}
  ,                                       !- Zone Heating Sizing Factor
  ,                                       !- Zone Cooling Sizing Factor
  DesignDay,                              !- Cooling Design Air Flow Method
  ,                                       !- Cooling Design Air Flow Rate {m3/s}
  ,                                       !- Cooling Minimum Air Flow per Zone Floor Area {m3/s-m2}
  ,                                       !- Cooling Minimum Air Flow {m3/s}
  ,                                       !- Cooling Minimum Air Flow Fraction
  DesignDay,                              !- Heating Design Air Flow Method
  ,                                       !- Heating Design Air Flow Rate {m3/s}
  ,                                       !- Heating Maximum Air Flow per Zone Floor Area {m3/s-m2}
  ,                                       !- Heating Maximum Air Flow {m3/s}
  ,                                       !- Heating Maximum Air Flow Fraction
  No,                                     !- Account for Dedicated Outdoor Air System
  NeutralSupplyAir,                       !- Dedicated Outdoor Air System Control Strategy
  autosize,                               !- Dedicated Outdoor Air Low Setpoint Temperature for Design {C}
  autosize,                               !- Dedicated Outdoor Air High Setpoint Temperature for Design {C}
  Sensible Load Only No Latent Load,      !- Zone Load Sizing Method
  HumidityRatioDifference,                !- Zone Latent Cooling Design Supply Air Humidity Ratio Input Method
  ,                                       !- Zone Dehumidification Design Supply Air Humidity Ratio {kgWater/kgDryAir}
  0.005,                                  !- Zone Cooling Design Supply Air Humidity Ratio Difference {kgWater/kgDryAir}
  HumidityRatioDifference,                !- Zone Latent Heating Design Supply Air Humidity Ratio Input Method
  ,                                       !- Zone Humidification Design Supply Air Humidity Ratio {kgWater/kgDryAir}
  0.005,                                  !- Zone Humidification Design Supply Air Humidity Ratio Difference {kgWater/kgDryAir}
  ,                                       !- Zone Humidistat Dehumidification Set Point Schedule Name
  ,                                       !- Zone Humidistat Humidification Set Point Schedule Name
  ,                                       !- Design Zone Air Distribution Effectiveness in Cooling Mode
  ,                                       !- Design Zone Air Distribution Effectiveness in Heating Mode
  ,                                       !- Design Zone Secondary Recirculation Fraction {dimensionless}
  ,                                       !- Design Minimum Zone Ventilation Efficiency {dimensionless}
  Coincident;                             !- Sizing Option

OS:ZoneHVAC:EquipmentList,
  {99f3177b-a8ed-4dcd-9c1b-1e336b2c6fb5}, !- Handle
  Zone HVAC Equipment List 1,             !- Name
  {3da48041-a257-43fd-9a1e-1f37a1cb5028}, !- Thermal Zone
  ,                                       !- Load Distribution Scheme
  {c88c2bcc-601f-4b02-a7fa-c075dc5f8e1a}, !- Zone Equipment 1
  1,                                      !- Zone Equipment Cooling Sequence 1
  1,                                      !- Zone Equipment Heating or No-Load Sequence 1
  {8638f4fd-353e-44ff-9a66-518b6161c98a}, !- Zone Equipment Sequential Cooling Fraction Schedule Name 1
  {408949b2-a301-4ed4-a5b3-796420109e33}; !- Zone Equipment Sequential Heating Fraction Schedule Name 1

OS:AdditionalProperties,
  {290dc67a-b9a9-4f3b-9afd-4189627d3b46}, !- Handle
  {3da48041-a257-43fd-9a1e-1f37a1cb5028}, !- Object Name
  ObjectType,                             !- Feature Name 1
  String,                                 !- Feature Data Type 1
  conditioned space;                      !- Feature Value 1

OS:Space,
  {aa14146a-3f61-4fc7-bb5b-e8b89a882fd7}, !- Handle
  conditioned space 1,                    !- Name
  ,                                       !- Space Type Name
  ,                                       !- Default Construction Set Name
  ,                                       !- Default Schedule Set Name
  ,                                       !- Direction of Relative North {deg}
  ,                                       !- X Origin {m}
  ,                                       !- Y Origin {m}
  ,                                       !- Z Origin {m}
  ,                                       !- Building Story Name
  {3da48041-a257-43fd-9a1e-1f37a1cb5028}, !- Thermal Zone Name
  ,                                       !- Part of Total Floor Area
  ,                                       !- Design Specification Outdoor Air Object Name
  ,                                       !- Building Unit Name
  692.06373070848;                        !- Volume {m3}

OS:Schedule:Ruleset,
  {8235d5c8-161e-463d-bbeb-fb80c2729249}, !- Handle
  heating setpoint,                       !- Name
  {e8b5a3bb-dc0c-4336-a37d-1168d364cca4}, !- Schedule Type Limits Name
  {3b54a1dc-9ae5-4950-bb08-ec65da4c90d4}; !- Default Day Schedule Name

OS:Schedule:Day,
  {3b54a1dc-9ae5-4950-bb08-ec65da4c90d4}, !- Handle
  heating setpoint default day,           !- Name
  {e8b5a3bb-dc0c-4336-a37d-1168d364cca4}, !- Schedule Type Limits Name
  ,                                       !- Interpolate to Timestep
  24,                                     !- Hour 1
  0,                                      !- Minute 1
  0;                                      !- Value Until Time 1

OS:Schedule:Rule,
  {1efbc6c1-baea-4a75-9999-b6192526c5f8}, !- Handle
  heating setpoint allday rule,           !- Name
  {8235d5c8-161e-463d-bbeb-fb80c2729249}, !- Schedule Ruleset Name
  0,                                      !- Rule Order
  {55833337-f19f-458d-86a0-654063d9678a}, !- Day Schedule Name
  Yes,                                    !- Apply Sunday
  Yes,                                    !- Apply Monday
  Yes,                                    !- Apply Tuesday
  Yes,                                    !- Apply Wednesday
  Yes,                                    !- Apply Thursday
  Yes,                                    !- Apply Friday
  Yes,                                    !- Apply Saturday
  DateRange,                              !- Date Specification Type
  1,                                      !- Start Month
  1,                                      !- Start Day
  12,                                     !- End Month
  31;                                     !- End Day

OS:Schedule:Day,
  {55833337-f19f-458d-86a0-654063d9678a}, !- Handle
  heating setpoint day,                   !- Name
  {e8b5a3bb-dc0c-4336-a37d-1168d364cca4}, !- Schedule Type Limits Name
  ,                                       !- Interpolate to Timestep
  24,                                     !- Hour 1
  0,                                      !- Minute 1
  20;                                     !- Value Until Time 1

OS:Schedule:Ruleset,
  {ec0b09e3-5329-4366-97b8-98d4a56c495c}, !- Handle
  cooling setpoint,                       !- Name
  {e8b5a3bb-dc0c-4336-a37d-1168d364cca4}, !- Schedule Type Limits Name
  {6164b35a-0254-40cf-ba97-cc13741f5df7}; !- Default Day Schedule Name

OS:Schedule:Day,
  {6164b35a-0254-40cf-ba97-cc13741f5df7}, !- Handle
  cooling setpoint default day,           !- Name
  {e8b5a3bb-dc0c-4336-a37d-1168d364cca4}, !- Schedule Type Limits Name
  ,                                       !- Interpolate to Timestep
  24,                                     !- Hour 1
  0,                                      !- Minute 1
  0;                                      !- Value Until Time 1

OS:Schedule:Rule,
  {1744608a-325a-4450-9ee4-3e75d55c2782}, !- Handle
  cooling setpoint allday rule,           !- Name
  {ec0b09e3-5329-4366-97b8-98d4a56c495c}, !- Schedule Ruleset Name
  0,                                      !- Rule Order
  {8c7b4581-2035-4720-8d4d-d5d167c52eae}, !- Day Schedule Name
  Yes,                                    !- Apply Sunday
  Yes,                                    !- Apply Monday
  Yes,                                    !- Apply Tuesday
  Yes,                                    !- Apply Wednesday
  Yes,                                    !- Apply Thursday
  Yes,                                    !- Apply Friday
  Yes,                                    !- Apply Saturday
  DateRange,                              !- Date Specification Type
  1,                                      !- Start Month
  1,                                      !- Start Day
  12,                                     !- End Month
  31;                                     !- End Day

OS:Schedule:Day,
  {8c7b4581-2035-4720-8d4d-d5d167c52eae}, !- Handle
  cooling setpoint day,                   !- Name
  {e8b5a3bb-dc0c-4336-a37d-1168d364cca4}, !- Schedule Type Limits Name
  ,                                       !- Interpolate to Timestep
  24,                                     !- Hour 1
  0,                                      !- Minute 1
  25.5555555555556;                       !- Value Until Time 1

OS:ThermostatSetpoint:DualSetpoint,
  {ed4c2096-4e04-4dbb-982d-8f516c826992}, !- Handle
  conditioned space temperature setpoint, !- Name
  {8235d5c8-161e-463d-bbeb-fb80c2729249}, !- Heating Setpoint Temperature Schedule Name
  {ec0b09e3-5329-4366-97b8-98d4a56c495c}, !- Cooling Setpoint Temperature Schedule Name
  0;                                      !- Temperature Difference Between Cutout And Setpoint {deltaC}

OS:ScheduleTypeLimits,
  {e8b5a3bb-dc0c-4336-a37d-1168d364cca4}, !- Handle
  Temperature,                            !- Name
  ,                                       !- Lower Limit Value
  ,                                       !- Upper Limit Value
  Continuous,                             !- Numeric Type
  Temperature;                            !- Unit Type

OS:Surface,
  {645b19de-959f-434b-947b-0cc2cf0baa6b}, !- Handle
  Roof1,                                  !- Name
  RoofCeiling,                            !- Surface Type
  {b64dc93b-010e-4e70-8497-6c7cb78d3256}, !- Construction Name
  {c906de53-e43d-45de-8c1a-c88cb533db62}, !- Space Name
  Outdoors,                               !- Outside Boundary Condition
  ,                                       !- Outside Boundary Condition Object
  SunExposed,                             !- Sun Exposure
  WindExposed,                            !- Wind Exposure
  ,                                       !- View Factor to Ground
  ,                                       !- Number of Vertices
  -26.9347048849634, 58.0557891618865, 2.4384, !- X,Y,Z Vertex 1 {m}
  -26.9347048849634, 46.7895631136661, 8.0715130241102, !- X,Y,Z Vertex 2 {m}
  -14.3386812381136, 46.7895631136661, 8.0715130241102, !- X,Y,Z Vertex 3 {m}
  -14.3386812381136, 58.0557891618865, 2.4384; !- X,Y,Z Vertex 4 {m}

OS:AdditionalProperties,
  {408c35b3-ba0f-4080-9350-a42753bf3a45}, !- Handle
  {645b19de-959f-434b-947b-0cc2cf0baa6b}, !- Object Name
  Length,                                 !- Feature Name 1
  Double,                                 !- Feature Data Type 1
  41.325536899113608,                     !- Feature Value 1
  Width,                                  !- Feature Name 2
  Double,                                 !- Feature Data Type 2
  41.325536899113601,                     !- Feature Value 2
  Azimuth,                                !- Feature Name 3
  Integer,                                !- Feature Data Type 3
  0,                                      !- Feature Value 3
  Tilt,                                   !- Feature Name 4
  Double,                                 !- Feature Data Type 4
  0.5,                                    !- Feature Value 4
  SurfaceType,                            !- Feature Name 5
  String,                                 !- Feature Data Type 5
  Roof;                                   !- Feature Value 5

OS:ThermalZone,
  {76702868-6e06-42e9-8fb1-c14f23e3f40a}, !- Handle
  attic - vented,                         !- Name
  1,                                      !- Multiplier
  ,                                       !- Ceiling Height {m}
  356.389957095237,                       !- Volume {m3}
  ,                                       !- Floor Area {m2}
  ,                                       !- Zone Inside Convection Algorithm
  ,                                       !- Zone Outside Convection Algorithm
  ,                                       !- Zone Conditioning Equipment List Name
  {c2e61ad5-edc9-4263-a7b6-49b42fa32d77}, !- Zone Air Inlet Port List
  {2507b04a-42a7-4dea-ac5f-c975450704d4}, !- Zone Air Exhaust Port List
  {096776b9-d3cb-42b6-a0bc-744a8161fff8}, !- Zone Air Node Name
  {38ec6113-9efe-4e74-8b63-908ee3b28c86}, !- Zone Return Air Port List
  ,                                       !- Primary Daylighting Control Name
  ,                                       !- Fraction of Zone Controlled by Primary Daylighting Control
  ,                                       !- Secondary Daylighting Control Name
  ,                                       !- Fraction of Zone Controlled by Secondary Daylighting Control
  ,                                       !- Illuminance Map Name
  ,                                       !- Group Rendering Name
  ,                                       !- Thermostat Name
  No;                                     !- Use Ideal Air Loads

OS:Node,
  {ce2f482e-2d97-40c5-b621-b6a45514a6e0}, !- Handle
  Node 2,                                 !- Name
  {096776b9-d3cb-42b6-a0bc-744a8161fff8}, !- Inlet Port
  ;                                       !- Outlet Port

OS:Connection,
  {096776b9-d3cb-42b6-a0bc-744a8161fff8}, !- Handle
  {76702868-6e06-42e9-8fb1-c14f23e3f40a}, !- Source Object
  11,                                     !- Outlet Port
  {ce2f482e-2d97-40c5-b621-b6a45514a6e0}, !- Target Object
  2;                                      !- Inlet Port

OS:PortList,
  {c2e61ad5-edc9-4263-a7b6-49b42fa32d77}, !- Handle
  {76702868-6e06-42e9-8fb1-c14f23e3f40a}; !- HVAC Component

OS:PortList,
  {2507b04a-42a7-4dea-ac5f-c975450704d4}, !- Handle
  {76702868-6e06-42e9-8fb1-c14f23e3f40a}; !- HVAC Component

OS:PortList,
  {38ec6113-9efe-4e74-8b63-908ee3b28c86}, !- Handle
  {76702868-6e06-42e9-8fb1-c14f23e3f40a}; !- HVAC Component

OS:Sizing:Zone,
  {3efb45ea-ddd5-4e0d-8ddf-a510c00d790d}, !- Handle
  {76702868-6e06-42e9-8fb1-c14f23e3f40a}, !- Zone or ZoneList Name
  SupplyAirTemperature,                   !- Zone Cooling Design Supply Air Temperature Input Method
  14,                                     !- Zone Cooling Design Supply Air Temperature {C}
  11.11,                                  !- Zone Cooling Design Supply Air Temperature Difference {deltaC}
  SupplyAirTemperature,                   !- Zone Heating Design Supply Air Temperature Input Method
  40,                                     !- Zone Heating Design Supply Air Temperature {C}
  11.11,                                  !- Zone Heating Design Supply Air Temperature Difference {deltaC}
  0.0085,                                 !- Zone Cooling Design Supply Air Humidity Ratio {kg-H2O/kg-air}
  0.008,                                  !- Zone Heating Design Supply Air Humidity Ratio {kg-H2O/kg-air}
  ,                                       !- Zone Heating Sizing Factor
  ,                                       !- Zone Cooling Sizing Factor
  DesignDay,                              !- Cooling Design Air Flow Method
  ,                                       !- Cooling Design Air Flow Rate {m3/s}
  ,                                       !- Cooling Minimum Air Flow per Zone Floor Area {m3/s-m2}
  ,                                       !- Cooling Minimum Air Flow {m3/s}
  ,                                       !- Cooling Minimum Air Flow Fraction
  DesignDay,                              !- Heating Design Air Flow Method
  ,                                       !- Heating Design Air Flow Rate {m3/s}
  ,                                       !- Heating Maximum Air Flow per Zone Floor Area {m3/s-m2}
  ,                                       !- Heating Maximum Air Flow {m3/s}
  ,                                       !- Heating Maximum Air Flow Fraction
  No,                                     !- Account for Dedicated Outdoor Air System
  NeutralSupplyAir,                       !- Dedicated Outdoor Air System Control Strategy
  autosize,                               !- Dedicated Outdoor Air Low Setpoint Temperature for Design {C}
  autosize,                               !- Dedicated Outdoor Air High Setpoint Temperature for Design {C}
  Sensible Load Only No Latent Load,      !- Zone Load Sizing Method
  HumidityRatioDifference,                !- Zone Latent Cooling Design Supply Air Humidity Ratio Input Method
  ,                                       !- Zone Dehumidification Design Supply Air Humidity Ratio {kgWater/kgDryAir}
  0.005,                                  !- Zone Cooling Design Supply Air Humidity Ratio Difference {kgWater/kgDryAir}
  HumidityRatioDifference,                !- Zone Latent Heating Design Supply Air Humidity Ratio Input Method
  ,                                       !- Zone Humidification Design Supply Air Humidity Ratio {kgWater/kgDryAir}
  0.005,                                  !- Zone Humidification Design Supply Air Humidity Ratio Difference {kgWater/kgDryAir}
  ,                                       !- Zone Humidistat Dehumidification Set Point Schedule Name
  ,                                       !- Zone Humidistat Humidification Set Point Schedule Name
  ,                                       !- Design Zone Air Distribution Effectiveness in Cooling Mode
  ,                                       !- Design Zone Air Distribution Effectiveness in Heating Mode
  ,                                       !- Design Zone Secondary Recirculation Fraction {dimensionless}
  ,                                       !- Design Minimum Zone Ventilation Efficiency {dimensionless}
  Coincident;                             !- Sizing Option

OS:ZoneHVAC:EquipmentList,
  {8c8f8194-185e-4dc7-b5ad-d380fcbeeab9}, !- Handle
  Zone HVAC Equipment List 2,             !- Name
  {76702868-6e06-42e9-8fb1-c14f23e3f40a}; !- Thermal Zone

OS:AdditionalProperties,
  {7e40ceb0-4934-4316-97fc-6a587f972d53}, !- Handle
  {76702868-6e06-42e9-8fb1-c14f23e3f40a}, !- Object Name
  ObjectType,                             !- Feature Name 1
  String,                                 !- Feature Data Type 1
  attic - vented;                         !- Feature Value 1

OS:Space,
  {c906de53-e43d-45de-8c1a-c88cb533db62}, !- Handle
  attic - vented 1,                       !- Name
  ,                                       !- Space Type Name
  ,                                       !- Default Construction Set Name
  ,                                       !- Default Schedule Set Name
  ,                                       !- Direction of Relative North {deg}
  ,                                       !- X Origin {m}
  ,                                       !- Y Origin {m}
  ,                                       !- Z Origin {m}
  ,                                       !- Building Story Name
  {76702868-6e06-42e9-8fb1-c14f23e3f40a}, !- Thermal Zone Name
  ,                                       !- Part of Total Floor Area
  ,                                       !- Design Specification Outdoor Air Object Name
  ,                                       !- Building Unit Name
  356.389957095237;                       !- Volume {m3}

OS:Material,
  {2c9dcf3a-612c-4808-848c-afa72d753ff4}, !- Handle
  asphalt or fiberglass shingles,         !- Name
  Rough,                                  !- Roughness
  0.00635,                                !- Thickness {m}
  0.162714,                               !- Conductivity {W/m-K}
  1121.4,                                 !- Density {kg/m3}
  1465.45,                                !- Specific Heat {J/kg-K}
  0.9,                                    !- Thermal Absorptance
  0.85,                                   !- Solar Absorptance