
OS:Version,
  {5227dabe-3228-4a7a-b3ab-799fb420698a}, !- Handle
  3.9.0;                                  !- Version Identifier

OS:SimulationControl,
  {9e7138ff-cc49-45ab-b3ce-483595af7fd8}, !- Handle
  ,                                       !- Do Zone Sizing Calculation
  ,                                       !- Do System Sizing Calculation
  ,                                       !- Do Plant Sizing Calculation
  No;                                     !- Run Simulation for Sizing Periods

OS:Timestep,
  {ea045c76-1de2-4c22-b8ae-28be99ce4927}, !- Handle
  1;                                      !- Number of Timesteps per Hour

OS:ShadowCalculation,
  {977aa398-a88e-4e20-84ad-3fce647b60f5}, !- Handle
  PolygonClipping,                        !- Shading Calculation Method
  ,                                       !- Shading Calculation Update Frequency Method
  20,                                     !- Shading Calculation Update Frequency
  200,                                    !- Maximum Figures in Shadow Overlap Calculations
  ,                                       !- Polygon Clipping Algorithm
  512,                                    !- Pixel Counting Resolution
  ,                                       !- Sky Diffuse Modeling Algorithm
  No,                                     !- Output External Shading Calculation Results
  No,                                     !- Disable Self-Shading Within Shading Zone Groups
  No;                                     !- Disable Self-Shading From Shading Zone Groups to Other Zones

OS:SurfaceConvectionAlgorithm:Outside,
  {b3743884-8872-47db-884a-23ab3f0d0eb5}, !- Handle
  DOE-2;                                  !- Algorithm

OS:SurfaceConvectionAlgorithm:Inside,
  {27419d41-e79f-4473-bf51-36eb80217d9d}, !- Handle
  TARP;                                   !- Algorithm

OS:ZoneCapacitanceMultiplier:ResearchSpecial,
  {bb864b40-3a3b-4237-9619-97b438ffaada}, !- Handle
  7,                                      !- Temperature Capacity Multiplier
  15,                                     !- Humidity Capacity Multiplier
  ;                                       !- Carbon Dioxide Capacity Multiplier

OS:ConvergenceLimits,
  {4ef4f22d-0fc7-4047-82d4-3e49bda5091e}, !- Handle
  0;                                      !- Minimum System Timestep {minutes}

OS:RunPeriod,
  {18256b71-3708-467d-a25f-52eb0f5841b7}, !- Handle
  Run Period 1,                           !- Name
  1,                                      !- Begin Month
  1,                                      !- Begin Day of Month
  12,                                     !- End Month
  31,                                     !- End Day of Month
  ,                                       !- Use Weather File Holidays and Special Days
  ,                                       !- Use Weather File Daylight Saving Period
  ,                                       !- Apply Weekend Holiday Rule
  ,                                       !- Use Weather File Rain Indicators
  ,                                       !- Use Weather File Snow Indicators
  ;                                       !- Number of Times Runperiod to be Repeated

OS:PerformancePrecisionTradeoffs,
  {f966777a-6182-445d-bf10-abfb2a7e1bbb}, !- Handle
  ,                                       !- Use Coil Direct Solutions
  CarrollMRT;                             !- Zone Radiant Exchange Algorithm

OS:WeatherFile,
  {d54f5873-d7ed-4e61-83b6-6200197e44cd}, !- Handle
  Buffalo Niagara Intl Ap,                !- City
  NY,                                     !- State Province Region
  USA,                                    !- Country
  TMY3,                                   !- Data Source
  725280,                                 !- WMO Number
  42.93,                                  !- Latitude {deg}
  -78.73,                                 !- Longitude {deg}
  -5,                                     !- Time Zone {hr}
  215,                                    !- Elevation {m}
  /Users/nmoore/github/urbanopt-example-geojson-project/example_project/weather/USA_NY_Buffalo-Greater.Buffalo.Intl.AP.725280_TMY3.epw, !- Url
  6B50E0FF,                               !- Checksum
  ,                                       !- Start Date Actual Year
  Sunday;                                 !- Start Day of Week

OS:YearDescription,
  {68edb872-9093-4580-af01-8e149036e561}, !- Handle
  2007,                                   !- Calendar Year
  ,                                       !- Day of Week for Start Day
  ;                                       !- Is Leap Year

OS:Site,
  {c13c3c09-cf20-40d6-94bf-12b192f91f33}, !- Handle
  Buffalo Niagara Intl Ap_NY,             !- Name
  42.93,                                  !- Latitude {deg}
  -78.73,                                 !- Longitude {deg}
  -5,                                     !- Time Zone {hr}
  215,                                    !- Elevation {m}
  Suburbs,                                !- Terrain
  Yes;                                    !- Keep Site Location Information

OS:RunPeriodControl:DaylightSavingTime,
  {b77ea239-c496-4bb3-a47d-dd8e425837a6}, !- Handle
  Mar 12,                                 !- Start Date
  Nov 5;                                  !- End Date

OS:Site:GroundTemperature:Shallow,
  {4e091f41-a306-474b-9be7-6da3774e7850}, !- Handle
  4.30207395723828,                       !- January Surface Ground Temperature {C}
  2.29327249652502,                       !- February Surface Ground Temperature {C}
  2.13240047156047,                       !- March Surface Ground Temperature {C}
  3.08567940719286,                       !- April Surface Ground Temperature {C}
  6.91256312497526,                       !- May Surface Ground Temperature {C}
  10.7216195949507,                       !- June Surface Ground Temperature {C}
  14.0238679822574,                       !- July Surface Ground Temperature {C}
  16.1157611184724,                       !- August Surface Ground Temperature {C}
  16.2934789303462,                       !- September Surface Ground Temperature {C}
  14.5920754632847,                       !- October Surface Ground Temperature {C}
  11.374036348653,                        !- November Surface Ground Temperature {C}
  7.68182621661674;                       !- December Surface Ground Temperature {C}

OS:ThermalZone,
  {38216bb6-9982-43ee-9b9b-9242c67eea16}, !- Handle
  conditioned space,                      !- Name
  1,                                      !- Multiplier
  ,                                       !- Ceiling Height {m}
  692.06373070848,                        !- Volume {m3}
  ,                                       !- Floor Area {m2}
  ,                                       !- Zone Inside Convection Algorithm
  ,                                       !- Zone Outside Convection Algorithm
  ,                                       !- Zone Conditioning Equipment List Name
  {40a63a08-a0c9-46bf-8cdf-31a63c1ab95a}, !- Zone Air Inlet Port List
  {8fccec16-58d6-4660-b7e7-888da6944625}, !- Zone Air Exhaust Port List
  {0520d639-de13-4010-ba70-980f4ed89d26}, !- Zone Air Node Name
  {cd1af278-1ae8-471c-bc3d-619a37584821}, !- Zone Return Air Port List
  ,                                       !- Primary Daylighting Control Name
  ,                                       !- Fraction of Zone Controlled by Primary Daylighting Control
  ,                                       !- Secondary Daylighting Control Name
  ,                                       !- Fraction of Zone Controlled by Secondary Daylighting Control
  ,                                       !- Illuminance Map Name
  ,                                       !- Group Rendering Name
  {2717b656-0cd1-4abb-b0f3-bb2b3e7c9b1a}, !- Thermostat Name
  No;                                     !- Use Ideal Air Loads

OS:Node,
  {5dc650c8-d1f2-4f89-9c71-98c484a5a9f9}, !- Handle
  Node 1,                                 !- Name
  {0520d639-de13-4010-ba70-980f4ed89d26}, !- Inlet Port
  ;                                       !- Outlet Port

OS:Connection,
  {0520d639-de13-4010-ba70-980f4ed89d26}, !- Handle
  {38216bb6-9982-43ee-9b9b-9242c67eea16}, !- Source Object
  11,                                     !- Outlet Port
  {5dc650c8-d1f2-4f89-9c71-98c484a5a9f9}, !- Target Object
  2;                                      !- Inlet Port

OS:PortList,
  {40a63a08-a0c9-46bf-8cdf-31a63c1ab95a}, !- Handle
  {38216bb6-9982-43ee-9b9b-9242c67eea16}; !- HVAC Component

OS:PortList,
  {8fccec16-58d6-4660-b7e7-888da6944625}, !- Handle
  {38216bb6-9982-43ee-9b9b-9242c67eea16}; !- HVAC Component

OS:PortList,
  {cd1af278-1ae8-471c-bc3d-619a37584821}, !- Handle
  {38216bb6-9982-43ee-9b9b-9242c67eea16}; !- HVAC Component

OS:Sizing:Zone,
  {1cf88363-64b0-4687-a546-c6cf1747d48e}, !- Handle
  {38216bb6-9982-43ee-9b9b-9242c67eea16}, !- Zone or ZoneList Name
  SupplyAirTemperature,                   !- Zone Cooling Design Supply Air Temperature Input Method
  14,                                     !- Zone Cooling Design Supply Air Temperature {C}
  11.11,                                  !- Zone Cooling Design Supply Air Temperature Difference {deltaC}
  SupplyAirTemperature,                   !- Zone Heating Design Supply Air Temperature Input Method
  40,                                     !- Zone Heating Design Supply Air Temperature {C}
  11.11,                                  !- Zone Heating Design Supply Air Temperature Difference {deltaC}
  0.0085,                                 !- Zone Cooling Design Supply Air Humidity Ratio {kg-H2O/kg-air}
  0.008,                                  !- Zone Heating Design Supply Air Humidity Ratio {kg-H2O/kg-air}
  ,                                       !- Zone Heating Sizing Factor
  ,                                       !- Zone Cooling Sizing Factor
  DesignDay,                              !- Cooling Design Air Flow Method
  ,                                       !- Cooling Design Air Flow Rate {m3/s}
  ,                                       !- Cooling Minimum Air Flow per Zone Floor Area {m3/s-m2}
  ,                                       !- Cooling Minimum Air Flow {m3/s}
  ,                                       !- Cooling Minimum Air Flow Fraction
  DesignDay,                              !- Heating Design Air Flow Method
  ,                                       !- Heating Design Air Flow Rate {m3/s}
  ,                                       !- Heating Maximum Air Flow per Zone Floor Area {m3/s-m2}
  ,                                       !- Heating Maximum Air Flow {m3/s}
  ,                                       !- Heating Maximum Air Flow Fraction
  No,                                     !- Account for Dedicated Outdoor Air System
  NeutralSupplyAir,                       !- Dedicated Outdoor Air System Control Strategy
  autosize,                               !- Dedicated Outdoor Air Low Setpoint Temperature for Design {C}
  autosize,                               !- Dedicated Outdoor Air High Setpoint Temperature for Design {C}
  Sensible Load Only No Latent Load,      !- Zone Load Sizing Method
  HumidityRatioDifference,                !- Zone Latent Cooling Design Supply Air Humidity Ratio Input Method
  ,                                       !- Zone Dehumidification Design Supply Air Humidity Ratio {kgWater/kgDryAir}
  0.005,                                  !- Zone Cooling Design Supply Air Humidity Ratio Difference {kgWater/kgDryAir}
  HumidityRatioDifference,                !- Zone Latent Heating Design Supply Air Humidity Ratio Input Method
  ,                                       !- Zone Humidification Design Supply Air Humidity Ratio {kgWater/kgDryAir}
  0.005,                                  !- Zone Humidification Design Supply Air Humidity Ratio Difference {kgWater/kgDryAir}
  ,                                       !- Zone Humidistat Dehumidification Set Point Schedule Name
  ,                                       !- Zone Humidistat Humidification Set Point Schedule Name
  ,                                       !- Design Zone Air Distribution Effectiveness in Cooling Mode
  ,                                       !- Design Zone Air Distribution Effectiveness in Heating Mode
  ,                                       !- Design Zone Secondary Recirculation Fraction {dimensionless}
  ,                                       !- Design Minimum Zone Ventilation Efficiency {dimensionless}
  Coincident;                             !- Sizing Option

OS:ZoneHVAC:EquipmentList,
  {d6216b15-f102-4d47-9266-6b0987976505}, !- Handle
  Zone HVAC Equipment List 1,             !- Name
  {38216bb6-9982-43ee-9b9b-9242c67eea16}, !- Thermal Zone
  ,                                       !- Load Distribution Scheme
  {62979959-e7ca-48b4-81b2-f261b4cef8fc}, !- Zone Equipment 1
  1,                                      !- Zone Equipment Cooling Sequence 1
  1,                                      !- Zone Equipment Heating or No-Load Sequence 1
  {8975a199-017d-405b-af3b-f57ed2232284}, !- Zone Equipment Sequential Cooling Fraction Schedule Name 1
  {7b8c9192-2b82-4d0d-83a5-4fa52ae5231e}; !- Zone Equipment Sequential Heating Fraction Schedule Name 1

OS:AdditionalProperties,
  {238a6cfe-f6f4-4a19-b27b-bc3402d24b67}, !- Handle
  {38216bb6-9982-43ee-9b9b-9242c67eea16}, !- Object Name
  ObjectType,                             !- Feature Name 1
  String,                                 !- Feature Data Type 1
  conditioned space;                      !- Feature Value 1

OS:Space,
  {1b608da5-fd54-4d4b-8d74-9e5bf85ce730}, !- Handle
  conditioned space 1,                    !- Name
  ,                                       !- Space Type Name
  ,                                       !- Default Construction Set Name
  ,                                       !- Default Schedule Set Name
  ,                                       !- Direction of Relative North {deg}
  ,                                       !- X Origin {m}
  ,                                       !- Y Origin {m}
  ,                                       !- Z Origin {m}
  ,                                       !- Building Story Name
  {38216bb6-9982-43ee-9b9b-9242c67eea16}, !- Thermal Zone Name
  ,                                       !- Part of Total Floor Area
  ,                                       !- Design Specification Outdoor Air Object Name
  ,                                       !- Building Unit Name
  692.06373070848;                        !- Volume {m3}

OS:Schedule:Ruleset,
  {9a5c9cfb-c18a-47b6-8109-ce02c652aeba}, !- Handle
  heating setpoint,                       !- Name
  {dfaa5f1b-cbc0-4376-b606-a06aaa031cb1}, !- Schedule Type Limits Name
  {e9fa46c0-b79a-42f8-bb34-f86d9e280e76}; !- Default Day Schedule Name

OS:Schedule:Day,
  {e9fa46c0-b79a-42f8-bb34-f86d9e280e76}, !- Handle
  heating setpoint default day,           !- Name
  {dfaa5f1b-cbc0-4376-b606-a06aaa031cb1}, !- Schedule Type Limits Name
  ,                                       !- Interpolate to Timestep
  24,                                     !- Hour 1
  0,                                      !- Minute 1
  0;                                      !- Value Until Time 1

OS:Schedule:Rule,
  {23cd7f12-6271-4084-bffb-2c71a9a7fa46}, !- Handle
  heating setpoint allday rule,           !- Name
  {9a5c9cfb-c18a-47b6-8109-ce02c652aeba}, !- Schedule Ruleset Name
  0,                                      !- Rule Order
  {a8bf7bd0-de43-40de-8fc9-e6ac081913d6}, !- Day Schedule Name
  Yes,                                    !- Apply Sunday
  Yes,                                    !- Apply Monday
  Yes,                                    !- Apply Tuesday
  Yes,                                    !- Apply Wednesday
  Yes,                                    !- Apply Thursday
  Yes,                                    !- Apply Friday
  Yes,                                    !- Apply Saturday
  DateRange,                              !- Date Specification Type
  1,                                      !- Start Month
  1,                                      !- Start Day
  12,                                     !- End Month
  31;                                     !- End Day

OS:Schedule:Day,
  {a8bf7bd0-de43-40de-8fc9-e6ac081913d6}, !- Handle
  heating setpoint day,                   !- Name
  {dfaa5f1b-cbc0-4376-b606-a06aaa031cb1}, !- Schedule Type Limits Name
  ,                                       !- Interpolate to Timestep
  24,                                     !- Hour 1
  0,                                      !- Minute 1
  20;                                     !- Value Until Time 1

OS:Schedule:Ruleset,
  {1bb827a7-9518-4775-87a4-06828642d67c}, !- Handle
  cooling setpoint,                       !- Name
  {dfaa5f1b-cbc0-4376-b606-a06aaa031cb1}, !- Schedule Type Limits Name
  {6a2544b3-5cb2-4a0d-86d4-2f5431598f55}; !- Default Day Schedule Name

OS:Schedule:Day,
  {6a2544b3-5cb2-4a0d-86d4-2f5431598f55}, !- Handle
  cooling setpoint default day,           !- Name
  {dfaa5f1b-cbc0-4376-b606-a06aaa031cb1}, !- Schedule Type Limits Name
  ,                                       !- Interpolate to Timestep
  24,                                     !- Hour 1
  0,                                      !- Minute 1
  0;                                      !- Value Until Time 1

OS:Schedule:Rule,
  {721ac49e-96ab-4ebd-bacd-1b499bfabab0}, !- Handle
  cooling setpoint allday rule,           !- Name
  {1bb827a7-9518-4775-87a4-06828642d67c}, !- Schedule Ruleset Name
  0,                                      !- Rule Order
  {07cb427b-63f0-4204-8ac5-f946200f9cce}, !- Day Schedule Name
  Yes,                                    !- Apply Sunday
  Yes,                                    !- Apply Monday
  Yes,                                    !- Apply Tuesday
  Yes,                                    !- Apply Wednesday
  Yes,                                    !- Apply Thursday
  Yes,                                    !- Apply Friday
  Yes,                                    !- Apply Saturday
  DateRange,                              !- Date Specification Type
  1,                                      !- Start Month
  1,                                      !- Start Day
  12,                                     !- End Month
  31;                                     !- End Day

OS:Schedule:Day,
  {07cb427b-63f0-4204-8ac5-f946200f9cce}, !- Handle
  cooling setpoint day,                   !- Name
  {dfaa5f1b-cbc0-4376-b606-a06aaa031cb1}, !- Schedule Type Limits Name
  ,                                       !- Interpolate to Timestep
  24,                                     !- Hour 1
  0,                                      !- Minute 1
  25.5555555555556;                       !- Value Until Time 1

OS:ThermostatSetpoint:DualSetpoint,
  {2717b656-0cd1-4abb-b0f3-bb2b3e7c9b1a}, !- Handle
  conditioned space temperature setpoint, !- Name
  {9a5c9cfb-c18a-47b6-8109-ce02c652aeba}, !- Heating Setpoint Temperature Schedule Name
  {1bb827a7-9518-4775-87a4-06828642d67c}, !- Cooling Setpoint Temperature Schedule Name
  0;                                      !- Temperature Difference Between Cutout And Setpoint {deltaC}

OS:ScheduleTypeLimits,
  {dfaa5f1b-cbc0-4376-b606-a06aaa031cb1}, !- Handle
  Temperature,                            !- Name
  ,                                       !- Lower Limit Value
  ,                                       !- Upper Limit Value
  Continuous,                             !- Numeric Type
  Temperature;                            !- Unit Type

OS:Surface,
  {320f3d2e-e27f-4865-ae19-1e5f9749657a}, !- Handle
  Roof1,                                  !- Name
  RoofCeiling,                            !- Surface Type
  {bcf1742b-834a-40d7-94bc-a537608b5cf5}, !- Construction Name
  {3861dd64-11c1-4bba-87b4-c8ee8128db41}, !- Space Name
  Outdoors,                               !- Outside Boundary Condition
  ,                                       !- Outside Boundary Condition Object
  SunExposed,                             !- Sun Exposure
  WindExposed,                            !- Wind Exposure
  ,                                       !- View Factor to Ground
  ,                                       !- Number of Vertices
  -26.9347048849634, 58.0557891618865, 2.4384, !- X,Y,Z Vertex 1 {m}
  -26.9347048849634, 46.7895631136661, 8.0715130241102, !- X,Y,Z Vertex 2 {m}
  -14.3386812381136, 46.7895631136661, 8.0715130241102, !- X,Y,Z Vertex 3 {m}
  -14.3386812381136, 58.0557891618865, 2.4384; !- X,Y,Z Vertex 4 {m}

OS:AdditionalProperties,
  {e0dd86fb-9336-465a-95d3-a506b0566358}, !- Handle
  {320f3d2e-e27f-4865-ae19-1e5f9749657a}, !- Object Name
  Length,                                 !- Feature Name 1
  Double,                                 !- Feature Data Type 1
  41.325536899113608,                     !- Feature Value 1
  Width,                                  !- Feature Name 2
  Double,                                 !- Feature Data Type 2
  41.325536899113601,                     !- Feature Value 2
  Azimuth,                                !- Feature Name 3
  Integer,                                !- Feature Data Type 3
  0,                                      !- Feature Value 3
  Tilt,                                   !- Feature Name 4
  Double,                                 !- Feature Data Type 4
  0.5,                                    !- Feature Value 4
  SurfaceType,                            !- Feature Name 5
  String,                                 !- Feature Data Type 5
  Roof;                                   !- Feature Value 5

OS:ThermalZone,
  {d83632af-c1ad-4d48-8012-dd4a7ed337de}, !- Handle
  attic - vented,                         !- Name
  1,                                      !- Multiplier
  ,                                       !- Ceiling Height {m}
  356.389957095237,                       !- Volume {m3}
  ,                                       !- Floor Area {m2}
  ,                                       !- Zone Inside Convection Algorithm
  ,                                       !- Zone Outside Convection Algorithm
  ,                                       !- Zone Conditioning Equipment List Name
  {2be2ef5d-ce35-4971-9db4-535907a21c23}, !- Zone Air Inlet Port List
  {9f98b2df-2f94-4cc3-a13a-09ed0a8a9bc1}, !- Zone Air Exhaust Port List
  {08c32b55-7d7e-4609-879a-dc5027460d74}, !- Zone Air Node Name
  {a4fa77ad-5911-4041-9cda-e00950f86f68}, !- Zone Return Air Port List
  ,                                       !- Primary Daylighting Control Name
  ,                                       !- Fraction of Zone Controlled by Primary Daylighting Control
  ,                                       !- Secondary Daylighting Control Name
  ,                                       !- Fraction of Zone Controlled by Secondary Daylighting Control
  ,                                       !- Illuminance Map Name
  ,                                       !- Group Rendering Name
  ,                                       !- Thermostat Name
  No;                                     !- Use Ideal Air Loads

OS:Node,
  {9e91b784-a215-4db5-af36-bc81464cb52c}, !- Handle
  Node 2,                                 !- Name
  {08c32b55-7d7e-4609-879a-dc5027460d74}, !- Inlet Port
  ;                                       !- Outlet Port

OS:Connection,
  {08c32b55-7d7e-4609-879a-dc5027460d74}, !- Handle
  {d83632af-c1ad-4d48-8012-dd4a7ed337de}, !- Source Object
  11,                                     !- Outlet Port
  {9e91b784-a215-4db5-af36-bc81464cb52c}, !- Target Object
  2;                                      !- Inlet Port

OS:PortList,
  {2be2ef5d-ce35-4971-9db4-535907a21c23}, !- Handle
  {d83632af-c1ad-4d48-8012-dd4a7ed337de}; !- HVAC Component

OS:PortList,
  {9f98b2df-2f94-4cc3-a13a-09ed0a8a9bc1}, !- Handle
  {d83632af-c1ad-4d48-8012-dd4a7ed337de}; !- HVAC Component

OS:PortList,
  {a4fa77ad-5911-4041-9cda-e00950f86f68}, !- Handle
  {d83632af-c1ad-4d48-8012-dd4a7ed337de}; !- HVAC Component

OS:Sizing:Zone,
  {8a9f39fa-6184-4fee-b166-fa5a53f92cdc}, !- Handle
  {d83632af-c1ad-4d48-8012-dd4a7ed337de}, !- Zone or ZoneList Name
  SupplyAirTemperature,                   !- Zone Cooling Design Supply Air Temperature Input Method
  14,                                     !- Zone Cooling Design Supply Air Temperature {C}
  11.11,                                  !- Zone Cooling Design Supply Air Temperature Difference {deltaC}
  SupplyAirTemperature,                   !- Zone Heating Design Supply Air Temperature Input Method
  40,                                     !- Zone Heating Design Supply Air Temperature {C}
  11.11,                                  !- Zone Heating Design Supply Air Temperature Difference {deltaC}
  0.0085,                                 !- Zone Cooling Design Supply Air Humidity Ratio {kg-H2O/kg-air}
  0.008,                                  !- Zone Heating Design Supply Air Humidity Ratio {kg-H2O/kg-air}
  ,                                       !- Zone Heating Sizing Factor
  ,                                       !- Zone Cooling Sizing Factor
  DesignDay,                              !- Cooling Design Air Flow Method
  ,                                       !- Cooling Design Air Flow Rate {m3/s}
  ,                                       !- Cooling Minimum Air Flow per Zone Floor Area {m3/s-m2}
  ,                                       !- Cooling Minimum Air Flow {m3/s}
  ,                                       !- Cooling Minimum Air Flow Fraction
  DesignDay,                              !- Heating Design Air Flow Method
  ,                                       !- Heating Design Air Flow Rate {m3/s}
  ,                                       !- Heating Maximum Air Flow per Zone Floor Area {m3/s-m2}
  ,                                       !- Heating Maximum Air Flow {m3/s}
  ,                                       !- Heating Maximum Air Flow Fraction
  No,                                     !- Account for Dedicated Outdoor Air System
  NeutralSupplyAir,                       !- Dedicated Outdoor Air System Control Strategy
  autosize,                               !- Dedicated Outdoor Air Low Setpoint Temperature for Design {C}
  autosize,                               !- Dedicated Outdoor Air High Setpoint Temperature for Design {C}
  Sensible Load Only No Latent Load,      !- Zone Load Sizing Method
  HumidityRatioDifference,                !- Zone Latent Cooling Design Supply Air Humidity Ratio Input Method
  ,                                       !- Zone Dehumidification Design Supply Air Humidity Ratio {kgWater/kgDryAir}
  0.005,                                  !- Zone Cooling Design Supply Air Humidity Ratio Difference {kgWater/kgDryAir}
  HumidityRatioDifference,                !- Zone Latent Heating Design Supply Air Humidity Ratio Input Method
  ,                                       !- Zone Humidification Design Supply Air Humidity Ratio {kgWater/kgDryAir}
  0.005,                                  !- Zone Humidification Design Supply Air Humidity Ratio Difference {kgWater/kgDryAir}
  ,                                       !- Zone Humidistat Dehumidification Set Point Schedule Name
  ,                                       !- Zone Humidistat Humidification Set Point Schedule Name
  ,                                       !- Design Zone Air Distribution Effectiveness in Cooling Mode
  ,                                       !- Design Zone Air Distribution Effectiveness in Heating Mode
  ,                                       !- Design Zone Secondary Recirculation Fraction {dimensionless}
  ,                                       !- Design Minimum Zone Ventilation Efficiency {dimensionless}
  Coincident;                             !- Sizing Option

OS:ZoneHVAC:EquipmentList,
  {a179e6eb-256f-4045-b48b-155cc3b00efa}, !- Handle
  Zone HVAC Equipment List 2,             !- Name
  {d83632af-c1ad-4d48-8012-dd4a7ed337de}; !- Thermal Zone

OS:AdditionalProperties,
  {7727a1bc-7ff0-4204-8e49-1a28ef70fc0a}, !- Handle
  {d83632af-c1ad-4d48-8012-dd4a7ed337de}, !- Object Name
  ObjectType,                             !- Feature Name 1
  String,                                 !- Feature Data Type 1
  attic - vented;                         !- Feature Value 1

OS:Space,
  {3861dd64-11c1-4bba-87b4-c8ee8128db41}, !- Handle
  attic - vented 1,                       !- Name
  ,                                       !- Space Type Name
  ,                                       !- Default Construction Set Name
  ,                                       !- Default Schedule Set Name
  ,                                       !- Direction of Relative North {deg}
  ,                                       !- X Origin {m}
  ,                                       !- Y Origin {m}
  ,                                       !- Z Origin {m}
  ,                                       !- Building Story Name
  {d83632af-c1ad-4d48-8012-dd4a7ed337de}, !- Thermal Zone Name
  ,                                       !- Part of Total Floor Area
  ,                                       !- Design Specification Outdoor Air Object Name
  ,                                       !- Building Unit Name
  356.389957095237;                       !- Volume {m3}

OS:Material,
  {e5272efa-6bb9-466c-aad7-dbd0ee283f08}, !- Handle
  asphalt or fiberglass shingles,         !- Name
  Rough,                                  !- Roughness
  0.00635,                                !- Thickness {m}
  0.162714,                               !- Conductivity {W/m-K}
  1121.4,                                 !- Density {kg/m3}
  1465.45,                                !- Specific Heat {J/kg-K}
  0.9,                                    !- Thermal Absorptance
  0.85,                                   !- Solar Absorptance
  0.85;                                   !- Visible Absorptance

OS:Material,
  {311ae8d3-64ea-42a8-890c-62af3e7805df}, !- Handle