
OS:Version,
  {b4c53729-87b3-400c-a838-072fb37d93dd}, !- Handle
  3.10.0;                                 !- Version Identifier

OS:SimulationControl,
  {8754adf8-0145-4e5b-99f2-1e722582d571}, !- Handle
  ,                                       !- Do Zone Sizing Calculation
  ,                                       !- Do System Sizing Calculation
  ,                                       !- Do Plant Sizing Calculation
  No;                                     !- Run Simulation for Sizing Periods

OS:Timestep,
  {c1b0d4d3-ee33-44e2-9af8-1667678ae6fe}, !- Handle
  1;                                      !- Number of Timesteps per Hour

OS:ShadowCalculation,
  {2e37b7e3-a9af-4d8a-8599-41e65bd2bd04}, !- Handle
  PolygonClipping,                        !- Shading Calculation Method
  ,                                       !- Shading Calculation Update Frequency Method
  20,                                     !- Shading Calculation Update Frequency
  200,                                    !- Maximum Figures in Shadow Overlap Calculations
  ,                                       !- Polygon Clipping Algorithm
  512,                                    !- Pixel Counting Resolution
  ,                                       !- Sky Diffuse Modeling Algorithm
  No,                                     !- Output External Shading Calculation Results
  No,                                     !- Disable Self-Shading Within Shading Zone Groups
  No;                                     !- Disable Self-Shading From Shading Zone Groups to Other Zones

OS:SurfaceConvectionAlgorithm:Outside,
  {b80f41c6-f4df-41b3-8d30-89906cc42e8a}, !- Handle
  DOE-2;                                  !- Algorithm

OS:SurfaceConvectionAlgorithm:Inside,
  {5b9cf10e-2381-49cd-8df6-0504171160e4}, !- Handle
  TARP;                                   !- Algorithm

OS:ZoneCapacitanceMultiplier:ResearchSpecial,
  {96086211-651e-4a5d-8621-34a295bd4b0c}, !- Handle
  7,                                      !- Temperature Capacity Multiplier
  15,                                     !- Humidity Capacity Multiplier
  ;                                       !- Carbon Dioxide Capacity Multiplier

OS:ConvergenceLimits,
  {2dc6d530-237c-4a41-b291-c32530a1fff2}, !- Handle
  0;                                      !- Minimum System Timestep {minutes}

OS:RunPeriod,
  {440e0972-2223-4755-b19e-e7b0a11f2986}, !- Handle
  Run Period 1,                           !- Name
  1,                                      !- Begin Month
  1,                                      !- Begin Day of Month
  12,                                     !- End Month
  31,                                     !- End Day of Month
  ,                                       !- Use Weather File Holidays and Special Days
  ,                                       !- Use Weather File Daylight Saving Period
  ,                                       !- Apply Weekend Holiday Rule
  ,                                       !- Use Weather File Rain Indicators
  ,                                       !- Use Weather File Snow Indicators
  ;                                       !- Number of Times Runperiod to be Repeated

OS:PerformancePrecisionTradeoffs,
  {db5802b6-1c20-426b-a226-a02d2044ac6e}, !- Handle
  ,                                       !- Use Coil Direct Solutions
  CarrollMRT;                             !- Zone Radiant Exchange Algorithm

OS:WeatherFile,
  {63968df2-5193-417c-adaf-a4c33fe4b217}, !- Handle
  Buffalo Niagara Intl Ap,                !- City
  NY,                                     !- State Province Region
  USA,                                    !- Country
  TMY3,                                   !- Data Source
  725280,                                 !- WMO Number
  42.93,                                  !- Latitude {deg}
  -78.73,                                 !- Longitude {deg}
  -5,                                     !- Time Zone {hr}
  215,                                    !- Elevation {m}
  /Users/nmoore/github/urbanopt-example-geojson-project/example_project/weather/USA_NY_Buffalo-Greater.Buffalo.Intl.AP.725280_TMY3.epw, !- Url
  6B50E0FF,                               !- Checksum
  ,                                       !- Start Date Actual Year
  Sunday;                                 !- Start Day of Week

OS:YearDescription,
  {308d4985-2da6-469f-b77e-9ca721d972b8}, !- Handle
  2007,                                   !- Calendar Year
  ,                                       !- Day of Week for Start Day
  ;                                       !- Is Leap Year

OS:Site,
  {a9606207-c0ac-4e4e-a4c0-9bc698113bcc}, !- Handle
  Buffalo Niagara Intl Ap_NY,             !- Name
  42.93,                                  !- Latitude {deg}
  -78.73,                                 !- Longitude {deg}
  -5,                                     !- Time Zone {hr}
  215,                                    !- Elevation {m}
  Suburbs,                                !- Terrain
  Yes;                                    !- Keep Site Location Information

OS:RunPeriodControl:DaylightSavingTime,
  {3dd7ac1e-7394-4cc2-9844-b71954ae7de8}, !- Handle
  Mar 12,                                 !- Start Date
  Nov 5;                                  !- End Date

OS:Site:GroundTemperature:Shallow,
  {5e7f7cbd-bcd9-4c29-9d2c-3f95ad2ab37b}, !- Handle
  4.30207395723828,                       !- January Surface Ground Temperature {C}
  2.29327249652502,                       !- February Surface Ground Temperature {C}
  2.13240047156047,                       !- March Surface Ground Temperature {C}
  3.08567940719286,                       !- April Surface Ground Temperature {C}
  6.91256312497526,                       !- May Surface Ground Temperature {C}
  10.7216195949507,                       !- June Surface Ground Temperature {C}
  14.0238679822574,                       !- July Surface Ground Temperature {C}
  16.1157611184724,                       !- August Surface Ground Temperature {C}
  16.2934789303462,                       !- September Surface Ground Temperature {C}
  14.5920754632847,                       !- October Surface Ground Temperature {C}
  11.374036348653,                        !- November Surface Ground Temperature {C}
  7.68182621661674;                       !- December Surface Ground Temperature {C}

OS:ThermalZone,
  {869e6e2b-748b-4680-a1c4-c3ec717e6568}, !- Handle
  conditioned space,                      !- Name
  1,                                      !- Multiplier
  ,                                       !- Ceiling Height {m}
  692.06373070848,                        !- Volume {m3}
  ,                                       !- Floor Area {m2}
  ,                                       !- Zone Inside Convection Algorithm
  ,                                       !- Zone Outside Convection Algorithm
  ,                                       !- Zone Conditioning Equipment List Name
  {3a5febee-45f6-4b93-bbff-eddb08301b17}, !- Zone Air Inlet Port List
  {7f83570f-5ea2-4282-af76-da69b7832494}, !- Zone Air Exhaust Port List
  {39c4f635-4180-46d3-9448-117b982862bb}, !- Zone Air Node Name
  {58cb4d41-1dc0-4d13-956b-2c390e69cdfa}, !- Zone Return Air Port List
  ,                                       !- Primary Daylighting Control Name
  ,                                       !- Fraction of Zone Controlled by Primary Daylighting Control
  ,                                       !- Secondary Daylighting Control Name
  ,                                       !- Fraction of Zone Controlled by Secondary Daylighting Control
  ,                                       !- Illuminance Map Name
  ,                                       !- Group Rendering Name
  {7f86ac29-0910-42e7-adb4-4f68f7a11c17}, !- Thermostat Name
  No;                                     !- Use Ideal Air Loads

OS:Node,
  {dd389a69-3cdb-44fe-b3bc-b5678ffe1469}, !- Handle
  Node 1,                                 !- Name
  {39c4f635-4180-46d3-9448-117b982862bb}, !- Inlet Port
  ;                                       !- Outlet Port

OS:Connection,
  {39c4f635-4180-46d3-9448-117b982862bb}, !- Handle
  {869e6e2b-748b-4680-a1c4-c3ec717e6568}, !- Source Object
  11,                                     !- Outlet Port
  {dd389a69-3cdb-44fe-b3bc-b5678ffe1469}, !- Target Object
  2;                                      !- Inlet Port

OS:PortList,
  {3a5febee-45f6-4b93-bbff-eddb08301b17}, !- Handle
  {869e6e2b-748b-4680-a1c4-c3ec717e6568}; !- HVAC Component

OS:PortList,
  {7f83570f-5ea2-4282-af76-da69b7832494}, !- Handle
  {869e6e2b-748b-4680-a1c4-c3ec717e6568}; !- HVAC Component

OS:PortList,
  {58cb4d41-1dc0-4d13-956b-2c390e69cdfa}, !- Handle
  {869e6e2b-748b-4680-a1c4-c3ec717e6568}; !- HVAC Component

OS:Sizing:Zone,
  {9418edb1-8e4e-4904-be94-5b0960ed84df}, !- Handle
  {869e6e2b-748b-4680-a1c4-c3ec717e6568}, !- Zone or ZoneList Name
  SupplyAirTemperature,                   !- Zone Cooling Design Supply Air Temperature Input Method
  14,                                     !- Zone Cooling Design Supply Air Temperature {C}
  11.11,                                  !- Zone Cooling Design Supply Air Temperature Difference {deltaC}
  SupplyAirTemperature,                   !- Zone Heating Design Supply Air Temperature Input Method
  40,                                     !- Zone Heating Design Supply Air Temperature {C}
  11.11,                                  !- Zone Heating Design Supply Air Temperature Difference {deltaC}
  0.0085,                                 !- Zone Cooling Design Supply Air Humidity Ratio {kg-H2O/kg-air}
  0.008,                                  !- Zone Heating Design Supply Air Humidity Ratio {kg-H2O/kg-air}
  ,                                       !- Zone Heating Sizing Factor
  ,                                       !- Zone Cooling Sizing Factor
  DesignDay,                              !- Cooling Design Air Flow Method
  ,                                       !- Cooling Design Air Flow Rate {m3/s}
  ,                                       !- Cooling Minimum Air Flow per Zone Floor Area {m3/s-m2}
  ,                                       !- Cooling Minimum Air Flow {m3/s}
  ,                                       !- Cooling Minimum Air Flow Fraction
  DesignDay,                              !- Heating Design Air Flow Method
  ,                                       !- Heating Design Air Flow Rate {m3/s}
  ,                                       !- Heating Maximum Air Flow per Zone Floor Area {m3/s-m2}
  ,                                       !- Heating Maximum Air Flow {m3/s}
  ,                                       !- Heating Maximum Air Flow Fraction
  No,                                     !- Account for Dedicated Outdoor Air System
  NeutralSupplyAir,                       !- Dedicated Outdoor Air System Control Strategy
  autosize,                               !- Dedicated Outdoor Air Low Setpoint Temperature for Design {C}
  autosize,                               !- Dedicated Outdoor Air High Setpoint Temperature for Design {C}
  Sensible Load Only No Latent Load,      !- Zone Load Sizing Method
  HumidityRatioDifference,                !- Zone Latent Cooling Design Supply Air Humidity Ratio Input Method
  ,                                       !- Zone Dehumidification Design Supply Air Humidity Ratio {kgWater/kgDryAir}
  0.005,                                  !- Zone Cooling Design Supply Air Humidity Ratio Difference {kgWater/kgDryAir}
  HumidityRatioDifference,                !- Zone Latent Heating Design Supply Air Humidity Ratio Input Method
  ,                                       !- Zone Humidification Design Supply Air Humidity Ratio {kgWater/kgDryAir}
  0.005,                                  !- Zone Humidification Design Supply Air Humidity Ratio Difference {kgWater/kgDryAir}
  ,                                       !- Zone Humidistat Dehumidification Set Point Schedule Name
  ,                                       !- Zone Humidistat Humidification Set Point Schedule Name
  ,                                       !- Design Zone Air Distribution Effectiveness in Cooling Mode
  ,                                       !- Design Zone Air Distribution Effectiveness in Heating Mode
  ,                                       !- Design Zone Secondary Recirculation Fraction {dimensionless}
  ,                                       !- Design Minimum Zone Ventilation Efficiency {dimensionless}
  Coincident;                             !- Sizing Option

OS:ZoneHVAC:EquipmentList,
  {75a6131c-b50d-486f-98ab-c5b9a72d2435}, !- Handle
  Zone HVAC Equipment List 1,             !- Name
  {869e6e2b-748b-4680-a1c4-c3ec717e6568}, !- Thermal Zone
  ,                                       !- Load Distribution Scheme
  {1f3751a6-ff55-47c0-a505-3eef09832293}, !- Zone Equipment 1
  1,                                      !- Zone Equipment Cooling Sequence 1
  1,                                      !- Zone Equipment Heating or No-Load Sequence 1
  {e0ed5f7a-1adc-4233-b192-e71759f137a2}, !- Zone Equipment Sequential Cooling Fraction Schedule Name 1
  {4076dc37-790c-4fe0-a1e8-95986396de4c}; !- Zone Equipment Sequential Heating Fraction Schedule Name 1

OS:AdditionalProperties,
  {144152f5-5a00-4e25-beb3-de3876bb286d}, !- Handle
  {869e6e2b-748b-4680-a1c4-c3ec717e6568}, !- Object Name
  ObjectType,                             !- Feature Name 1
  String,                                 !- Feature Data Type 1
  conditioned space;                      !- Feature Value 1

OS:Space,
  {a178fcdc-18dd-45e8-85ce-02ca075b91ed}, !- Handle
  conditioned space 1,                    !- Name
  ,                                       !- Space Type Name
  ,                                       !- Default Construction Set Name
  ,                                       !- Default Schedule Set Name
  ,                                       !- Direction of Relative North {deg}
  ,                                       !- X Origin {m}
  ,                                       !- Y Origin {m}
  ,                                       !- Z Origin {m}
  ,                                       !- Building Story Name
  {869e6e2b-748b-4680-a1c4-c3ec717e6568}, !- Thermal Zone Name
  ,                                       !- Part of Total Floor Area
  ,                                       !- Design Specification Outdoor Air Object Name
  ,                                       !- Building Unit Name
  692.06373070848;                        !- Volume {m3}

OS:Schedule:Ruleset,
  {a3892ced-4f0c-45d0-bd3a-e5a997528c1b}, !- Handle
  heating setpoint,                       !- Name
  {51e5cffd-ad05-4b7c-9b03-443de6a0e8cb}, !- Schedule Type Limits Name
  {4204989d-194d-4836-8692-247336567621}; !- Default Day Schedule Name

OS:Schedule:Day,
  {4204989d-194d-4836-8692-247336567621}, !- Handle
  heating setpoint default day,           !- Name
  {51e5cffd-ad05-4b7c-9b03-443de6a0e8cb}, !- Schedule Type Limits Name
  ,                                       !- Interpolate to Timestep
  24,                                     !- Hour 1
  0,                                      !- Minute 1
  0;                                      !- Value Until Time 1

OS:Schedule:Rule,
  {5649ad4e-ec7f-4ff0-9018-72f2f864f682}, !- Handle
  heating setpoint allday rule,           !- Name
  {a3892ced-4f0c-45d0-bd3a-e5a997528c1b}, !- Schedule Ruleset Name
  0,                                      !- Rule Order
  {b86ba3e4-a570-435c-8499-4800a16238c7}, !- Day Schedule Name
  Yes,                                    !- Apply Sunday
  Yes,                                    !- Apply Monday
  Yes,                                    !- Apply Tuesday
  Yes,                                    !- Apply Wednesday
  Yes,                                    !- Apply Thursday
  Yes,                                    !- Apply Friday
  Yes,                                    !- Apply Saturday
  DateRange,                              !- Date Specification Type
  1,                                      !- Start Month
  1,                                      !- Start Day
  12,                                     !- End Month
  31;                                     !- End Day

OS:Schedule:Day,
  {b86ba3e4-a570-435c-8499-4800a16238c7}, !- Handle
  heating setpoint day,                   !- Name
  {51e5cffd-ad05-4b7c-9b03-443de6a0e8cb}, !- Schedule Type Limits Name
  ,                                       !- Interpolate to Timestep
  24,                                     !- Hour 1
  0,                                      !- Minute 1
  20;                                     !- Value Until Time 1

OS:Schedule:Ruleset,
  {471fd02e-f7f4-4efc-90f6-8106ac456093}, !- Handle
  cooling setpoint,                       !- Name
  {51e5cffd-ad05-4b7c-9b03-443de6a0e8cb}, !- Schedule Type Limits Name
  {51c0f69d-0b38-4bed-bfdf-b3790a56299f}; !- Default Day Schedule Name

OS:Schedule:Day,
  {51c0f69d-0b38-4bed-bfdf-b3790a56299f}, !- Handle
  cooling setpoint default day,           !- Name
  {51e5cffd-ad05-4b7c-9b03-443de6a0e8cb}, !- Schedule Type Limits Name
  ,                                       !- Interpolate to Timestep
  24,                                     !- Hour 1
  0,                                      !- Minute 1
  0;                                      !- Value Until Time 1

OS:Schedule:Rule,
  {7cb689b7-f4de-4201-b15e-926a376ee814}, !- Handle
  cooling setpoint allday rule,           !- Name
  {471fd02e-f7f4-4efc-90f6-8106ac456093}, !- Schedule Ruleset Name
  0,                                      !- Rule Order
  {04a37809-cdf8-41eb-994a-4b380ddb6b0b}, !- Day Schedule Name
  Yes,                                    !- Apply Sunday
  Yes,                                    !- Apply Monday
  Yes,                                    !- Apply Tuesday
  Yes,                                    !- Apply Wednesday
  Yes,                                    !- Apply Thursday
  Yes,                                    !- Apply Friday
  Yes,                                    !- Apply Saturday
  DateRange,                              !- Date Specification Type
  1,                                      !- Start Month
  1,                                      !- Start Day
  12,                                     !- End Month
  31;                                     !- End Day

OS:Schedule:Day,
  {04a37809-cdf8-41eb-994a-4b380ddb6b0b}, !- Handle
  cooling setpoint day,                   !- Name
  {51e5cffd-ad05-4b7c-9b03-443de6a0e8cb}, !- Schedule Type Limits Name
  ,                                       !- Interpolate to Timestep
  24,                                     !- Hour 1
  0,                                      !- Minute 1
  25.5555555555556;                       !- Value Until Time 1

OS:ThermostatSetpoint:DualSetpoint,
  {7f86ac29-0910-42e7-adb4-4f68f7a11c17}, !- Handle
  conditioned space temperature setpoint, !- Name
  {a3892ced-4f0c-45d0-bd3a-e5a997528c1b}, !- Heating Setpoint Temperature Schedule Name
  {471fd02e-f7f4-4efc-90f6-8106ac456093}, !- Cooling Setpoint Temperature Schedule Name
  0;                                      !- Temperature Difference Between Cutout And Setpoint {deltaC}

OS:ScheduleTypeLimits,
  {51e5cffd-ad05-4b7c-9b03-443de6a0e8cb}, !- Handle
  Temperature,                            !- Name
  ,                                       !- Lower Limit Value
  ,                                       !- Upper Limit Value
  Continuous,                             !- Numeric Type
  Temperature;                            !- Unit Type

OS:Surface,
  {59ce2549-79c5-4ffa-bd7d-fa192670ebc2}, !- Handle
  Roof1,                                  !- Name
  RoofCeiling,                            !- Surface Type
  {14907c83-6802-40c4-8c58-7864ac566490}, !- Construction Name
  {1f84446f-5ffd-4541-97ea-214ac6f3274b}, !- Space Name
  Outdoors,                               !- Outside Boundary Condition
  ,                                       !- Outside Boundary Condition Object
  SunExposed,                             !- Sun Exposure
  WindExposed,                            !- Wind Exposure
  ,                                       !- View Factor to Ground
  ,                                       !- Number of Vertices
  -26.9347048849634, 58.0557891618865, 2.4384, !- X,Y,Z Vertex 1 {m}
  -26.9347048849634, 46.7895631136661, 8.0715130241102, !- X,Y,Z Vertex 2 {m}
  -14.3386812381136, 46.7895631136661, 8.0715130241102, !- X,Y,Z Vertex 3 {m}
  -14.3386812381136, 58.0557891618865, 2.4384; !- X,Y,Z Vertex 4 {m}

OS:AdditionalProperties,
  {62edc8d5-a7c0-4424-b5a4-21193bb1746a}, !- Handle
  {59ce2549-79c5-4ffa-bd7d-fa192670ebc2}, !- Object Name
  Length,                                 !- Feature Name 1
  Double,                                 !- Feature Data Type 1
  41.325536899113608,                     !- Feature Value 1
  Width,                                  !- Feature Name 2
  Double,                                 !- Feature Data Type 2
  41.325536899113601,                     !- Feature Value 2
  Azimuth,                                !- Feature Name 3
  Integer,                                !- Feature Data Type 3
  0,                                      !- Feature Value 3
  Tilt,                                   !- Feature Name 4
  Double,                                 !- Feature Data Type 4
  0.5,                                    !- Feature Value 4
  SurfaceType,                            !- Feature Name 5
  String,                                 !- Feature Data Type 5
  Roof;                                   !- Feature Value 5

OS:ThermalZone,
  {27ec5b25-61ec-477e-ac8d-3df16853730a}, !- Handle
  attic - vented,                         !- Name
  1,                                      !- Multiplier
  ,                                       !- Ceiling Height {m}
  356.390921899745,                       !- Volume {m3}
  ,                                       !- Floor Area {m2}
  ,                                       !- Zone Inside Convection Algorithm
  ,                                       !- Zone Outside Convection Algorithm
  ,                                       !- Zone Conditioning Equipment List Name
  {84797c19-705e-4aa2-96a4-f2311386eda6}, !- Zone Air Inlet Port List
  {50c44a8d-3ee0-42db-a034-73fa658d6d26}, !- Zone Air Exhaust Port List
  {b9352034-8918-4b46-a86c-24dbc6a4a481}, !- Zone Air Node Name
  {166c63a6-e466-4764-9a52-9d31c0927172}, !- Zone Return Air Port List
  ,                                       !- Primary Daylighting Control Name
  ,                                       !- Fraction of Zone Controlled by Primary Daylighting Control
  ,                                       !- Secondary Daylighting Control Name
  ,                                       !- Fraction of Zone Controlled by Secondary Daylighting Control
  ,                                       !- Illuminance Map Name
  ,                                       !- Group Rendering Name
  ,                                       !- Thermostat Name
  No;                                     !- Use Ideal Air Loads

OS:Node,
  {cf856375-6c1b-465b-9688-8d6c52b37326}, !- Handle
  Node 2,                                 !- Name
  {b9352034-8918-4b46-a86c-24dbc6a4a481}, !- Inlet Port
  ;                                       !- Outlet Port

OS:Connection,
  {b9352034-8918-4b46-a86c-24dbc6a4a481}, !- Handle
  {27ec5b25-61ec-477e-ac8d-3df16853730a}, !- Source Object
  11,                                     !- Outlet Port
  {cf856375-6c1b-465b-9688-8d6c52b37326}, !- Target Object
  2;                                      !- Inlet Port

OS:PortList,
  {84797c19-705e-4aa2-96a4-f2311386eda6}, !- Handle
  {27ec5b25-61ec-477e-ac8d-3df16853730a}; !- HVAC Component

OS:PortList,
  {50c44a8d-3ee0-42db-a034-73fa658d6d26}, !- Handle
  {27ec5b25-61ec-477e-ac8d-3df16853730a}; !- HVAC Component

OS:PortList,
  {166c63a6-e466-4764-9a52-9d31c0927172}, !- Handle
  {27ec5b25-61ec-477e-ac8d-3df16853730a}; !- HVAC Component

OS:Sizing:Zone,
  {228b19b2-edba-4b46-83c1-b4f3c7bd6159}, !- Handle
  {27ec5b25-61ec-477e-ac8d-3df16853730a}, !- Zone or ZoneList Name
  SupplyAirTemperature,                   !- Zone Cooling Design Supply Air Temperature Input Method
  14,                                     !- Zone Cooling Design Supply Air Temperature {C}
  11.11,                                  !- Zone Cooling Design Supply Air Temperature Difference {deltaC}
  SupplyAirTemperature,                   !- Zone Heating Design Supply Air Temperature Input Method
  40,                                     !- Zone Heating Design Supply Air Temperature {C}
  11.11,                                  !- Zone Heating Design Supply Air Temperature Difference {deltaC}
  0.0085,                                 !- Zone Cooling Design Supply Air Humidity Ratio {kg-H2O/kg-air}
  0.008,                                  !- Zone Heating Design Supply Air Humidity Ratio {kg-H2O/kg-air}
  ,                                       !- Zone Heating Sizing Factor
  ,                                       !- Zone Cooling Sizing Factor
  DesignDay,                              !- Cooling Design Air Flow Method
  ,                                       !- Cooling Design Air Flow Rate {m3/s}
  ,                                       !- Cooling Minimum Air Flow per Zone Floor Area {m3/s-m2}
  ,                                       !- Cooling Minimum Air Flow {m3/s}
  ,                                       !- Cooling Minimum Air Flow Fraction
  DesignDay,                              !- Heating Design Air Flow Method
  ,                                       !- Heating Design Air Flow Rate {m3/s}
  ,                                       !- Heating Maximum Air Flow per Zone Floor Area {m3/s-m2}
  ,                                       !- Heating Maximum Air Flow {m3/s}
  ,                                       !- Heating Maximum Air Flow Fraction
  No,                                     !- Account for Dedicated Outdoor Air System
  NeutralSupplyAir,                       !- Dedicated Outdoor Air System Control Strategy
  autosize,                               !- Dedicated Outdoor Air Low Setpoint Temperature for Design {C}
  autosize,                               !- Dedicated Outdoor Air High Setpoint Temperature for Design {C}
  Sensible Load Only No Latent Load,      !- Zone Load Sizing Method
  HumidityRatioDifference,                !- Zone Latent Cooling Design Supply Air Humidity Ratio Input Method
  ,                                       !- Zone Dehumidification Design Supply Air Humidity Ratio {kgWater/kgDryAir}
  0.005,                                  !- Zone Cooling Design Supply Air Humidity Ratio Difference {kgWater/kgDryAir}
  HumidityRatioDifference,                !- Zone Latent Heating Design Supply Air Humidity Ratio Input Method
  ,                                       !- Zone Humidification Design Supply Air Humidity Ratio {kgWater/kgDryAir}
  0.005,                                  !- Zone Humidification Design Supply Air Humidity Ratio Difference {kgWater/kgDryAir}
  ,                                       !- Zone Humidistat Dehumidification Set Point Schedule Name
  ,                                       !- Zone Humidistat Humidification Set Point Schedule Name
  ,                                       !- Design Zone Air Distribution Effectiveness in Cooling Mode
  ,                                       !- Design Zone Air Distribution Effectiveness in Heating Mode
  ,                                       !- Design Zone Secondary Recirculation Fraction {dimensionless}
  ,                                       !- Design Minimum Zone Ventilation Efficiency {dimensionless}
  Coincident;                             !- Sizing Option

OS:ZoneHVAC:EquipmentList,
  {f727f42d-f1ed-4039-bb99-1b5480c9e3b3}, !- Handle
  Zone HVAC Equipment List 2,             !- Name
  {27ec5b25-61ec-477e-ac8d-3df16853730a}; !- Thermal Zone

OS:AdditionalProperties,
  {af706833-a5e8-4681-a158-d0e2695eee1f}, !- Handle
  {27ec5b25-61ec-477e-ac8d-3df16853730a}, !- Object Name
  ObjectType,                             !- Feature Name 1
  String,                                 !- Feature Data Type 1
  attic - vented;                         !- Feature Value 1

OS:Space,
  {1f84446f-5ffd-4541-97ea-214ac6f3274b}, !- Handle
  attic - vented 1,                       !- Name
  ,                                       !- Space Type Name
  ,                                       !- Default Construction Set Name
  ,                                       !- Default Schedule Set Name
  ,                                       !- Direction of Relative North {deg}
  ,                                       !- X Origin {m}
  ,                                       !- Y Origin {m}
  ,                                       !- Z Origin {m}
  ,                                       !- Building Story Name
  {27ec5b25-61ec-477e-ac8d-3df16853730a}, !- Thermal Zone Name
  ,                                       !- Part of Total Floor Area
  ,                                       !- Design Specification Outdoor Air Object Name
  ,                                       !- Building Unit Name
  356.390921899745;                       !- Volume {m3}

OS:Material,
  {c78a6476-3f01-4f76-976a-11b66b110001}, !- Handle
  asphalt or fiberglass shingles,         !- Name
  Rough,                                  !- Roughness
  0.00635,                                !- Thickness {m}
  0.162714,                               !- Conductivity {W/m-K}
  1121.4,                                 !- Density {kg/m3}
  1465.45,                                !- Specific Heat {J/kg-K}
  0.9,                                    !- Thermal Absorptance
  0.85,                                   !- Solar Absorptance
  0.85;                                   !- Visible Absorptance

OS:Material,
  {13dc86f5-ac94-46ab-bc36-6707d3742c23}, !- Handle