
OS:Version,
  {d740c761-fd87-40f4-ab34-7050a6203b3d}, !- Handle
  3.10.0;                                 !- Version Identifier

OS:SimulationControl,
  {f0046f48-ee8e-4e1a-a542-be95d8823eed}, !- Handle
  ,                                       !- Do Zone Sizing Calculation
  ,                                       !- Do System Sizing Calculation
  ,                                       !- Do Plant Sizing Calculation
  No;                                     !- Run Simulation for Sizing Periods

OS:Timestep,
  {f94a72a1-34b3-40be-949e-88d534a285ff}, !- Handle
  1;                                      !- Number of Timesteps per Hour

OS:ShadowCalculation,
  {36bfe4aa-f78d-4d2e-b65f-fdb65d92ecdb}, !- Handle
  PolygonClipping,                        !- Shading Calculation Method
  ,                                       !- Shading Calculation Update Frequency Method
  20,                                     !- Shading Calculation Update Frequency
  200,                                    !- Maximum Figures in Shadow Overlap Calculations
  ,                                       !- Polygon Clipping Algorithm
  512,                                    !- Pixel Counting Resolution
  ,                                       !- Sky Diffuse Modeling Algorithm
  No,                                     !- Output External Shading Calculation Results
  No,                                     !- Disable Self-Shading Within Shading Zone Groups
  No;                                     !- Disable Self-Shading From Shading Zone Groups to Other Zones

OS:SurfaceConvectionAlgorithm:Outside,
  {a91052ac-f614-4fb0-a285-972f02f9f370}, !- Handle
  DOE-2;                                  !- Algorithm

OS:SurfaceConvectionAlgorithm:Inside,
  {003944c4-a30e-4984-b131-aa850cbe85dd}, !- Handle
  TARP;                                   !- Algorithm

OS:ZoneCapacitanceMultiplier:ResearchSpecial,
  {603e0c5a-3a29-4754-90e8-49287052cc2d}, !- Handle
  7,                                      !- Temperature Capacity Multiplier
  15,                                     !- Humidity Capacity Multiplier
  ;                                       !- Carbon Dioxide Capacity Multiplier

OS:ConvergenceLimits,
  {cf98d127-e89c-46cf-8901-06347078a89d}, !- Handle
  0;                                      !- Minimum System Timestep {minutes}

OS:RunPeriod,
  {bb328acf-d455-4fda-83d8-1d63fb5f8c91}, !- Handle
  Run Period 1,                           !- Name
  1,                                      !- Begin Month
  1,                                      !- Begin Day of Month
  12,                                     !- End Month
  31,                                     !- End Day of Month
  ,                                       !- Use Weather File Holidays and Special Days
  ,                                       !- Use Weather File Daylight Saving Period
  ,                                       !- Apply Weekend Holiday Rule
  ,                                       !- Use Weather File Rain Indicators
  ,                                       !- Use Weather File Snow Indicators
  ;                                       !- Number of Times Runperiod to be Repeated

OS:PerformancePrecisionTradeoffs,
  {6e0a544e-3a95-4e8c-bb08-067ce721f509}, !- Handle
  ,                                       !- Use Coil Direct Solutions
  CarrollMRT;                             !- Zone Radiant Exchange Algorithm

OS:WeatherFile,
  {345a7457-a9fd-4d5b-8f82-4cfc5f99059a}, !- Handle
  Buffalo Niagara Intl Ap,                !- City
  NY,                                     !- State Province Region
  USA,                                    !- Country
  TMY3,                                   !- Data Source
  725280,                                 !- WMO Number
  42.93,                                  !- Latitude {deg}
  -78.73,                                 !- Longitude {deg}
  -5,                                     !- Time Zone {hr}
  215,                                    !- Elevation {m}
  /Users/nmoore/github/urbanopt-example-geojson-project/example_project/weather/USA_NY_Buffalo-Greater.Buffalo.Intl.AP.725280_TMY3.epw, !- Url
  6B50E0FF,                               !- Checksum
  ,                                       !- Start Date Actual Year
  Sunday;                                 !- Start Day of Week

OS:YearDescription,
  {1f040639-085c-4cd6-b4cf-8022c8e5cbb3}, !- Handle
  2007,                                   !- Calendar Year
  ,                                       !- Day of Week for Start Day
  ;                                       !- Is Leap Year

OS:Site,
  {d0e30790-8b62-40de-8de9-1a03f715d32f}, !- Handle
  Buffalo Niagara Intl Ap_NY,             !- Name
  42.93,                                  !- Latitude {deg}
  -78.73,                                 !- Longitude {deg}
  -5,                                     !- Time Zone {hr}
  215,                                    !- Elevation {m}
  Suburbs,                                !- Terrain
  Yes;                                    !- Keep Site Location Information

OS:RunPeriodControl:DaylightSavingTime,
  {9dfacda1-2e76-45a3-87ae-7b734dfe05d4}, !- Handle
  Mar 12,                                 !- Start Date
  Nov 5;                                  !- End Date

OS:Site:GroundTemperature:Shallow,
  {1a23b3d9-7adc-46be-97ba-48c540374963}, !- Handle
  4.30207395723828,                       !- January Surface Ground Temperature {C}
  2.29327249652502,                       !- February Surface Ground Temperature {C}
  2.13240047156047,                       !- March Surface Ground Temperature {C}
  3.08567940719286,                       !- April Surface Ground Temperature {C}
  6.91256312497526,                       !- May Surface Ground Temperature {C}
  10.7216195949507,                       !- June Surface Ground Temperature {C}
  14.0238679822574,                       !- July Surface Ground Temperature {C}
  16.1157611184724,                       !- August Surface Ground Temperature {C}
  16.2934789303462,                       !- September Surface Ground Temperature {C}
  14.5920754632847,                       !- October Surface Ground Temperature {C}
  11.374036348653,                        !- November Surface Ground Temperature {C}
  7.68182621661674;                       !- December Surface Ground Temperature {C}

OS:ThermalZone,
  {9587ce6c-310e-43d5-9927-85e13d37f80f}, !- Handle
  conditioned space,                      !- Name
  1,                                      !- Multiplier
  ,                                       !- Ceiling Height {m}
  346.03186535424,                        !- Volume {m3}
  ,                                       !- Floor Area {m2}
  ,                                       !- Zone Inside Convection Algorithm
  ,                                       !- Zone Outside Convection Algorithm
  ,                                       !- Zone Conditioning Equipment List Name
  {c5360575-3c18-41a0-90d9-38df2b2163c2}, !- Zone Air Inlet Port List
  {c266ac7a-638b-437f-8e62-612764a5294e}, !- Zone Air Exhaust Port List
  {4ad9d2c6-e42e-4288-932f-e087bbddcc1e}, !- Zone Air Node Name
  {8eb96fc6-0acd-4254-b31a-198c6f20c08c}, !- Zone Return Air Port List
  ,                                       !- Primary Daylighting Control Name
  ,                                       !- Fraction of Zone Controlled by Primary Daylighting Control
  ,                                       !- Secondary Daylighting Control Name
  ,                                       !- Fraction of Zone Controlled by Secondary Daylighting Control
  ,                                       !- Illuminance Map Name
  ,                                       !- Group Rendering Name
  {83bf4715-1d53-43ed-b546-59298a14fa7d}, !- Thermostat Name
  No;                                     !- Use Ideal Air Loads

OS:Node,
  {b14ed6ce-9491-490a-8425-89c6579e8f89}, !- Handle
  Node 1,                                 !- Name
  {4ad9d2c6-e42e-4288-932f-e087bbddcc1e}, !- Inlet Port
  ;                                       !- Outlet Port

OS:Connection,
  {4ad9d2c6-e42e-4288-932f-e087bbddcc1e}, !- Handle
  {9587ce6c-310e-43d5-9927-85e13d37f80f}, !- Source Object
  11,                                     !- Outlet Port
  {b14ed6ce-9491-490a-8425-89c6579e8f89}, !- Target Object
  2;                                      !- Inlet Port

OS:PortList,
  {c5360575-3c18-41a0-90d9-38df2b2163c2}, !- Handle
  {9587ce6c-310e-43d5-9927-85e13d37f80f}, !- HVAC Component
  {b4b2adf2-aab5-49cf-8c01-32c54c7ed200}; !- Port 1

OS:PortList,
  {c266ac7a-638b-437f-8e62-612764a5294e}, !- Handle
  {9587ce6c-310e-43d5-9927-85e13d37f80f}; !- HVAC Component

OS:PortList,
  {8eb96fc6-0acd-4254-b31a-198c6f20c08c}, !- Handle
  {9587ce6c-310e-43d5-9927-85e13d37f80f}, !- HVAC Component
  {cf9b0e6f-5034-4f68-9c4a-afe27add1b81}; !- Port 1

OS:Sizing:Zone,
  {293fbc5b-8501-4d80-8153-d20954efb4f9}, !- Handle
  {9587ce6c-310e-43d5-9927-85e13d37f80f}, !- Zone or ZoneList Name
  SupplyAirTemperature,                   !- Zone Cooling Design Supply Air Temperature Input Method
  14,                                     !- Zone Cooling Design Supply Air Temperature {C}
  11.11,                                  !- Zone Cooling Design Supply Air Temperature Difference {deltaC}
  SupplyAirTemperature,                   !- Zone Heating Design Supply Air Temperature Input Method
  40,                                     !- Zone Heating Design Supply Air Temperature {C}
  11.11,                                  !- Zone Heating Design Supply Air Temperature Difference {deltaC}
  0.0085,                                 !- Zone Cooling Design Supply Air Humidity Ratio {kg-H2O/kg-air}
  0.008,                                  !- Zone Heating Design Supply Air Humidity Ratio {kg-H2O/kg-air}
  ,                                       !- Zone Heating Sizing Factor
  ,                                       !- Zone Cooling Sizing Factor
  DesignDay,                              !- Cooling Design Air Flow Method
  ,                                       !- Cooling Design Air Flow Rate {m3/s}
  ,                                       !- Cooling Minimum Air Flow per Zone Floor Area {m3/s-m2}
  ,                                       !- Cooling Minimum Air Flow {m3/s}
  ,                                       !- Cooling Minimum Air Flow Fraction
  DesignDay,                              !- Heating Design Air Flow Method
  ,                                       !- Heating Design Air Flow Rate {m3/s}
  ,                                       !- Heating Maximum Air Flow per Zone Floor Area {m3/s-m2}
  ,                                       !- Heating Maximum Air Flow {m3/s}
  ,                                       !- Heating Maximum Air Flow Fraction
  No,                                     !- Account for Dedicated Outdoor Air System
  NeutralSupplyAir,                       !- Dedicated Outdoor Air System Control Strategy
  autosize,                               !- Dedicated Outdoor Air Low Setpoint Temperature for Design {C}
  autosize,                               !- Dedicated Outdoor Air High Setpoint Temperature for Design {C}
  Sensible Load Only No Latent Load,      !- Zone Load Sizing Method
  HumidityRatioDifference,                !- Zone Latent Cooling Design Supply Air Humidity Ratio Input Method
  ,                                       !- Zone Dehumidification Design Supply Air Humidity Ratio {kgWater/kgDryAir}
  0.005,                                  !- Zone Cooling Design Supply Air Humidity Ratio Difference {kgWater/kgDryAir}
  HumidityRatioDifference,                !- Zone Latent Heating Design Supply Air Humidity Ratio Input Method
  ,                                       !- Zone Humidification Design Supply Air Humidity Ratio {kgWater/kgDryAir}
  0.005,                                  !- Zone Humidification Design Supply Air Humidity Ratio Difference {kgWater/kgDryAir}
  ,                                       !- Zone Humidistat Dehumidification Set Point Schedule Name
  ,                                       !- Zone Humidistat Humidification Set Point Schedule Name
  ,                                       !- Design Zone Air Distribution Effectiveness in Cooling Mode
  ,                                       !- Design Zone Air Distribution Effectiveness in Heating Mode
  ,                                       !- Design Zone Secondary Recirculation Fraction {dimensionless}
  ,                                       !- Design Minimum Zone Ventilation Efficiency {dimensionless}
  Coincident;                             !- Sizing Option

OS:ZoneHVAC:EquipmentList,
  {7094eb04-53ff-4190-aea5-8b5d82eb72cb}, !- Handle
  Zone HVAC Equipment List 1,             !- Name
  {9587ce6c-310e-43d5-9927-85e13d37f80f}, !- Thermal Zone
  ,                                       !- Load Distribution Scheme
  {eef30955-185b-4088-848d-7fe67b458177}, !- Zone Equipment 1
  1,                                      !- Zone Equipment Cooling Sequence 1
  1,                                      !- Zone Equipment Heating or No-Load Sequence 1
  {0805fd9f-008f-40f6-97b7-a771355446e5}, !- Zone Equipment Sequential Cooling Fraction Schedule Name 1
  {88db5f56-fe3f-4d8d-b26a-2f008c079d49}; !- Zone Equipment Sequential Heating Fraction Schedule Name 1

OS:AdditionalProperties,
  {2ebd563e-7e2d-45fd-9fae-ad4e2504365a}, !- Handle
  {9587ce6c-310e-43d5-9927-85e13d37f80f}, !- Object Name
  ObjectType,                             !- Feature Name 1
  String,                                 !- Feature Data Type 1
  conditioned space;                      !- Feature Value 1

OS:Space,
  {8436473a-050b-4e1d-86df-df8fbc03ba42}, !- Handle
  conditioned space 1,                    !- Name
  ,                                       !- Space Type Name
  ,                                       !- Default Construction Set Name
  ,                                       !- Default Schedule Set Name
  ,                                       !- Direction of Relative North {deg}
  ,                                       !- X Origin {m}
  ,                                       !- Y Origin {m}
  ,                                       !- Z Origin {m}
  ,                                       !- Building Story Name
  {9587ce6c-310e-43d5-9927-85e13d37f80f}, !- Thermal Zone Name
  ,                                       !- Part of Total Floor Area
  ,                                       !- Design Specification Outdoor Air Object Name
  ,                                       !- Building Unit Name
  346.03186535424;                        !- Volume {m3}

OS:Schedule:Ruleset,
  {dedb710b-ccd2-404d-b6bd-0c0ebc06bbb7}, !- Handle
  heating setpoint,                       !- Name
  {ebfe2686-67da-40d6-899f-b53149225658}, !- Schedule Type Limits Name
  {fcec44c0-f11e-485a-82b5-cf9f4b8e18af}; !- Default Day Schedule Name

OS:Schedule:Day,
  {fcec44c0-f11e-485a-82b5-cf9f4b8e18af}, !- Handle
  heating setpoint default day,           !- Name
  {ebfe2686-67da-40d6-899f-b53149225658}, !- Schedule Type Limits Name
  ,                                       !- Interpolate to Timestep
  24,                                     !- Hour 1
  0,                                      !- Minute 1
  0;                                      !- Value Until Time 1

OS:Schedule:Rule,
  {3a42b65d-9198-44ae-ae3a-bc872a880627}, !- Handle
  heating setpoint allday rule,           !- Name
  {dedb710b-ccd2-404d-b6bd-0c0ebc06bbb7}, !- Schedule Ruleset Name
  0,                                      !- Rule Order
  {f8d41ec3-dc46-42be-a6b3-0c64c2464d1d}, !- Day Schedule Name
  Yes,                                    !- Apply Sunday
  Yes,                                    !- Apply Monday
  Yes,                                    !- Apply Tuesday
  Yes,                                    !- Apply Wednesday
  Yes,                                    !- Apply Thursday
  Yes,                                    !- Apply Friday
  Yes,                                    !- Apply Saturday
  DateRange,                              !- Date Specification Type
  1,                                      !- Start Month
  1,                                      !- Start Day
  12,                                     !- End Month
  31;                                     !- End Day

OS:Schedule:Day,
  {f8d41ec3-dc46-42be-a6b3-0c64c2464d1d}, !- Handle
  heating setpoint day,                   !- Name
  {ebfe2686-67da-40d6-899f-b53149225658}, !- Schedule Type Limits Name
  ,                                       !- Interpolate to Timestep
  24,                                     !- Hour 1
  0,                                      !- Minute 1
  20;                                     !- Value Until Time 1

OS:Schedule:Ruleset,
  {1ed32c7e-afe2-49a5-9886-09693854aef6}, !- Handle
  cooling setpoint,                       !- Name
  {ebfe2686-67da-40d6-899f-b53149225658}, !- Schedule Type Limits Name
  {4c70f064-3e9b-4327-b40e-180a3b9bf769}; !- Default Day Schedule Name

OS:Schedule:Day,
  {4c70f064-3e9b-4327-b40e-180a3b9bf769}, !- Handle
  cooling setpoint default day,           !- Name
  {ebfe2686-67da-40d6-899f-b53149225658}, !- Schedule Type Limits Name
  ,                                       !- Interpolate to Timestep
  24,                                     !- Hour 1
  0,                                      !- Minute 1
  0;                                      !- Value Until Time 1

OS:Schedule:Rule,
  {0fedef33-2f20-4e43-8946-80a0d71cab81}, !- Handle
  cooling setpoint allday rule,           !- Name
  {1ed32c7e-afe2-49a5-9886-09693854aef6}, !- Schedule Ruleset Name
  0,                                      !- Rule Order
  {3255e2ff-2dd2-4093-89e5-b28c18306a53}, !- Day Schedule Name
  Yes,                                    !- Apply Sunday
  Yes,                                    !- Apply Monday
  Yes,                                    !- Apply Tuesday
  Yes,                                    !- Apply Wednesday
  Yes,                                    !- Apply Thursday
  Yes,                                    !- Apply Friday
  Yes,                                    !- Apply Saturday
  DateRange,                              !- Date Specification Type
  1,                                      !- Start Month
  1,                                      !- Start Day
  12,                                     !- End Month
  31;                                     !- End Day

OS:Schedule:Day,
  {3255e2ff-2dd2-4093-89e5-b28c18306a53}, !- Handle
  cooling setpoint day,                   !- Name
  {ebfe2686-67da-40d6-899f-b53149225658}, !- Schedule Type Limits Name
  ,                                       !- Interpolate to Timestep
  24,                                     !- Hour 1
  0,                                      !- Minute 1
  25.5555555555556;                       !- Value Until Time 1

OS:ThermostatSetpoint:DualSetpoint,
  {83bf4715-1d53-43ed-b546-59298a14fa7d}, !- Handle
  conditioned space temperature setpoint, !- Name
  {dedb710b-ccd2-404d-b6bd-0c0ebc06bbb7}, !- Heating Setpoint Temperature Schedule Name
  {1ed32c7e-afe2-49a5-9886-09693854aef6}, !- Cooling Setpoint Temperature Schedule Name
  0;                                      !- Temperature Difference Between Cutout And Setpoint {deltaC}

OS:ScheduleTypeLimits,
  {ebfe2686-67da-40d6-899f-b53149225658}, !- Handle
  Temperature,                            !- Name
  ,                                       !- Lower Limit Value
  ,                                       !- Upper Limit Value
  Continuous,                             !- Numeric Type
  Temperature;                            !- Unit Type

OS:Surface,
  {a276b440-2b3a-4cef-afe6-7e55e86ab746}, !- Handle
  Roof1,                                  !- Name
  RoofCeiling,                            !- Surface Type
  {e796a33c-9bb0-421c-b5a6-6ceac26474e9}, !- Construction Name
  {cf04e663-69c8-4ffd-b376-a242be424a13}, !- Space Name
  Outdoors,                               !- Outside Boundary Condition
  ,                                       !- Outside Boundary Condition Object
  SunExposed,                             !- Sun Exposure
  WindExposed,                            !- Wind Exposure
  ,                                       !- View Factor to Ground
  ,                                       !- Number of Vertices
  -25.0448166683368, 35.3267874683368, 2.4384, !- X,Y,Z Vertex 1 {m}
  -25.0448166683368, 27.3603626312596, 6.42161241853859, !- X,Y,Z Vertex 2 {m}
  -16.1380829316632, 27.3603626312596, 6.42161241853859, !- X,Y,Z Vertex 3 {m}
  -16.1380829316632, 35.3267874683368, 2.4384; !- X,Y,Z Vertex 4 {m}

OS:AdditionalProperties,
  {e19eb57e-5f56-4d15-91eb-0f6bde8e8939}, !- Handle
  {a276b440-2b3a-4cef-afe6-7e55e86ab746}, !- Object Name
  Length,                                 !- Feature Name 1
  Double,                                 !- Feature Data Type 1
  29.221567377538118,                     !- Feature Value 1
  Width,                                  !- Feature Name 2
  Double,                                 !- Feature Data Type 2
  29.221567377538118,                     !- Feature Value 2
  Azimuth,                                !- Feature Name 3
  Integer,                                !- Feature Data Type 3
  0,                                      !- Feature Value 3
  Tilt,                                   !- Feature Name 4
  Double,                                 !- Feature Data Type 4
  0.5,                                    !- Feature Value 4
  SurfaceType,                            !- Feature Name 5
  String,                                 !- Feature Data Type 5
  Roof;                                   !- Feature Value 5

OS:ThermalZone,
  {2cf53af8-c6ee-4ebd-af9e-a8e164e7bb7b}, !- Handle
  attic - vented,                         !- Name
  1,                                      !- Multiplier
  ,                                       !- Ceiling Height {m}
  126.003218814318,                       !- Volume {m3}
  ,                                       !- Floor Area {m2}
  ,                                       !- Zone Inside Convection Algorithm
  ,                                       !- Zone Outside Convection Algorithm
  ,                                       !- Zone Conditioning Equipment List Name
  {85157c96-ef50-45f5-9d34-a13dcbefab6a}, !- Zone Air Inlet Port List
  {59128341-3ef1-4546-87a3-5ccf00d78d6c}, !- Zone Air Exhaust Port List
  {05f7b225-d912-4752-879d-661123d764f5}, !- Zone Air Node Name
  {36a90e31-ec19-4bd1-834e-333d1dc3641c}, !- Zone Return Air Port List
  ,                                       !- Primary Daylighting Control Name
  ,                                       !- Fraction of Zone Controlled by Primary Daylighting Control
  ,                                       !- Secondary Daylighting Control Name
  ,                                       !- Fraction of Zone Controlled by Secondary Daylighting Control
  ,                                       !- Illuminance Map Name
  ,                                       !- Group Rendering Name
  ,                                       !- Thermostat Name
  No;                                     !- Use Ideal Air Loads

OS:Node,
  {abd7ba67-2306-4bc6-905e-6bc8d8ce6509}, !- Handle
  Node 2,                                 !- Name
  {05f7b225-d912-4752-879d-661123d764f5}, !- Inlet Port
  ;                                       !- Outlet Port

OS:Connection,
  {05f7b225-d912-4752-879d-661123d764f5}, !- Handle
  {2cf53af8-c6ee-4ebd-af9e-a8e164e7bb7b}, !- Source Object
  11,                                     !- Outlet Port
  {abd7ba67-2306-4bc6-905e-6bc8d8ce6509}, !- Target Object
  2;                                      !- Inlet Port

OS:PortList,
  {85157c96-ef50-45f5-9d34-a13dcbefab6a}, !- Handle
  {2cf53af8-c6ee-4ebd-af9e-a8e164e7bb7b}; !- HVAC Component

OS:PortList,
  {59128341-3ef1-4546-87a3-5ccf00d78d6c}, !- Handle
  {2cf53af8-c6ee-4ebd-af9e-a8e164e7bb7b}; !- HVAC Component

OS:PortList,
  {36a90e31-ec19-4bd1-834e-333d1dc3641c}, !- Handle
  {2cf53af8-c6ee-4ebd-af9e-a8e164e7bb7b}; !- HVAC Component

OS:Sizing:Zone,
  {44c6a14b-e80f-4250-a59d-bc2025e55f18}, !- Handle
  {2cf53af8-c6ee-4ebd-af9e-a8e164e7bb7b}, !- Zone or ZoneList Name
  SupplyAirTemperature,                   !- Zone Cooling Design Supply Air Temperature Input Method
  14,                                     !- Zone Cooling Design Supply Air Temperature {C}
  11.11,                                  !- Zone Cooling Design Supply Air Temperature Difference {deltaC}
  SupplyAirTemperature,                   !- Zone Heating Design Supply Air Temperature Input Method
  40,                                     !- Zone Heating Design Supply Air Temperature {C}
  11.11,                                  !- Zone Heating Design Supply Air Temperature Difference {deltaC}
  0.0085,                                 !- Zone Cooling Design Supply Air Humidity Ratio {kg-H2O/kg-air}
  0.008,                                  !- Zone Heating Design Supply Air Humidity Ratio {kg-H2O/kg-air}
  ,                                       !- Zone Heating Sizing Factor
  ,                                       !- Zone Cooling Sizing Factor
  DesignDay,                              !- Cooling Design Air Flow Method
  ,                                       !- Cooling Design Air Flow Rate {m3/s}
  ,                                       !- Cooling Minimum Air Flow per Zone Floor Area {m3/s-m2}
  ,                                       !- Cooling Minimum Air Flow {m3/s}
  ,                                       !- Cooling Minimum Air Flow Fraction
  DesignDay,                              !- Heating Design Air Flow Method
  ,                                       !- Heating Design Air Flow Rate {m3/s}
  ,                                       !- Heating Maximum Air Flow per Zone Floor Area {m3/s-m2}
  ,                                       !- Heating Maximum Air Flow {m3/s}
  ,                                       !- Heating Maximum Air Flow Fraction
  No,                                     !- Account for Dedicated Outdoor Air System
  NeutralSupplyAir,                       !- Dedicated Outdoor Air System Control Strategy
  autosize,                               !- Dedicated Outdoor Air Low Setpoint Temperature for Design {C}
  autosize,                               !- Dedicated Outdoor Air High Setpoint Temperature for Design {C}
  Sensible Load Only No Latent Load,      !- Zone Load Sizing Method
  HumidityRatioDifference,                !- Zone Latent Cooling Design Supply Air Humidity Ratio Input Method
  ,                                       !- Zone Dehumidification Design Supply Air Humidity Ratio {kgWater/kgDryAir}
  0.005,                                  !- Zone Cooling Design Supply Air Humidity Ratio Difference {kgWater/kgDryAir}
  HumidityRatioDifference,                !- Zone Latent Heating Design Supply Air Humidity Ratio Input Method
  ,                                       !- Zone Humidification Design Supply Air Humidity Ratio {kgWater/kgDryAir}
  0.005,                                  !- Zone Humidification Design Supply Air Humidity Ratio Difference {kgWater/kgDryAir}
  ,                                       !- Zone Humidistat Dehumidification Set Point Schedule Name
  ,                                       !- Zone Humidistat Humidification Set Point Schedule Name
  ,                                       !- Design Zone Air Distribution Effectiveness in Cooling Mode
  ,                                       !- Design Zone Air Distribution Effectiveness in Heating Mode
  ,                                       !- Design Zone Secondary Recirculation Fraction {dimensionless}
  ,                                       !- Design Minimum Zone Ventilation Efficiency {dimensionless}
  Coincident;                             !- Sizing Option

OS:ZoneHVAC:EquipmentList,
  {6a617810-544e-4f66-a8b6-961585f0e25a}, !- Handle
  Zone HVAC Equipment List 2,             !- Name
  {2cf53af8-c6ee-4ebd-af9e-a8e164e7bb7b}; !- Thermal Zone

OS:AdditionalProperties,
  {de4a61d0-cb82-4feb-897e-4dea29adc04c}, !- Handle
  {2cf53af8-c6ee-4ebd-af9e-a8e164e7bb7b}, !- Object Name
  ObjectType,                             !- Feature Name 1
  String,                                 !- Feature Data Type 1
  attic - vented;                         !- Feature Value 1

OS:Space,
  {cf04e663-69c8-4ffd-b376-a242be424a13}, !- Handle
  attic - vented 1,                       !- Name
  ,                                       !- Space Type Name
  ,                                       !- Default Construction Set Name
  ,                                       !- Default Schedule Set Name
  ,                                       !- Direction of Relative North {deg}
  ,                                       !- X Origin {m}
  ,                                       !- Y Origin {m}
  ,                                       !- Z Origin {m}
  ,                                       !- Building Story Name
  {2cf53af8-c6ee-4ebd-af9e-a8e164e7bb7b}, !- Thermal Zone Name
  ,                                       !- Part of Total Floor Area
  ,                                       !- Design Specification Outdoor Air Object Name
  ,                                       !- Building Unit Name
  126.003218814318;                       !- Volume {m3}

OS:Material,
  {8b54430c-2edd-46f3-b50c-6157e190fb24}, !- Handle
  asphalt or fiberglass shingles,         !- Name
  Rough,                                  !- Roughness
  0.00635,                                !- Thickness {m}
  0.162714,                               !- Conductivity {W/m-K}
  1121.4,                                 !- Density {kg/m3}
  1465.45,                                !- Specific Heat {J/kg-K}
  0.9,                                    !- Thermal Absorptance
  0.85,                                   !- Solar Absorptance