
OS:Version,
  {83c8efd3-c810-41f1-98ca-1a611ad21529}, !- Handle
  3.9.0;                                  !- Version Identifier

OS:SimulationControl,
  {c84ee118-fe19-4c44-9e06-6fcb16c4dbbd}, !- Handle
  ,                                       !- Do Zone Sizing Calculation
  ,                                       !- Do System Sizing Calculation
  ,                                       !- Do Plant Sizing Calculation
  No;                                     !- Run Simulation for Sizing Periods

OS:Timestep,
  {30b74847-1c4c-4fb7-ab0a-58990da5d5aa}, !- Handle
  1;                                      !- Number of Timesteps per Hour

OS:ShadowCalculation,
  {828112f1-2412-4e36-a427-733a45beb4ae}, !- Handle
  PolygonClipping,                        !- Shading Calculation Method
  ,                                       !- Shading Calculation Update Frequency Method
  20,                                     !- Shading Calculation Update Frequency
  200,                                    !- Maximum Figures in Shadow Overlap Calculations
  ,                                       !- Polygon Clipping Algorithm
  512,                                    !- Pixel Counting Resolution
  ,                                       !- Sky Diffuse Modeling Algorithm
  No,                                     !- Output External Shading Calculation Results
  No,                                     !- Disable Self-Shading Within Shading Zone Groups
  No;                                     !- Disable Self-Shading From Shading Zone Groups to Other Zones

OS:SurfaceConvectionAlgorithm:Outside,
  {357e27eb-e0d2-4c6f-be25-68a8488a4b6d}, !- Handle
  DOE-2;                                  !- Algorithm

OS:SurfaceConvectionAlgorithm:Inside,
  {f2de2627-08fd-4b3c-a87f-68bbaa01ed65}, !- Handle
  TARP;                                   !- Algorithm

OS:ZoneCapacitanceMultiplier:ResearchSpecial,
  {dac81c0b-107c-40c6-9131-8e6de07011e1}, !- Handle
  7,                                      !- Temperature Capacity Multiplier
  15,                                     !- Humidity Capacity Multiplier
  ;                                       !- Carbon Dioxide Capacity Multiplier

OS:ConvergenceLimits,
  {d36c0a6e-5705-4991-8d8d-5fbef688eaa8}, !- Handle
  0;                                      !- Minimum System Timestep {minutes}

OS:RunPeriod,
  {8c333fd6-4738-4a86-9a6c-f5a2758fd04b}, !- Handle
  Run Period 1,                           !- Name
  1,                                      !- Begin Month
  1,                                      !- Begin Day of Month
  12,                                     !- End Month
  31,                                     !- End Day of Month
  ,                                       !- Use Weather File Holidays and Special Days
  ,                                       !- Use Weather File Daylight Saving Period
  ,                                       !- Apply Weekend Holiday Rule
  ,                                       !- Use Weather File Rain Indicators
  ,                                       !- Use Weather File Snow Indicators
  ;                                       !- Number of Times Runperiod to be Repeated

OS:PerformancePrecisionTradeoffs,
  {0eb824f4-b1e3-4a18-9d09-725947e6ba59}, !- Handle
  ,                                       !- Use Coil Direct Solutions
  CarrollMRT;                             !- Zone Radiant Exchange Algorithm

OS:WeatherFile,
  {78bdb6d6-7792-48ba-b140-34c05107d5ec}, !- Handle
  Buffalo Niagara Intl Ap,                !- City
  NY,                                     !- State Province Region
  USA,                                    !- Country
  TMY3,                                   !- Data Source
  725280,                                 !- WMO Number
  42.93,                                  !- Latitude {deg}
  -78.73,                                 !- Longitude {deg}
  -5,                                     !- Time Zone {hr}
  215,                                    !- Elevation {m}
  /Users/nmoore/github/urbanopt-example-geojson-project/example_project/weather/USA_NY_Buffalo-Greater.Buffalo.Intl.AP.725280_TMY3.epw, !- Url
  6B50E0FF,                               !- Checksum
  ,                                       !- Start Date Actual Year
  Sunday;                                 !- Start Day of Week

OS:YearDescription,
  {a1b459da-3a59-4bfd-9da2-dda2afb40d3e}, !- Handle
  2007,                                   !- Calendar Year
  ,                                       !- Day of Week for Start Day
  ;                                       !- Is Leap Year

OS:Site,
  {098dbe57-6b49-4e5f-97a5-83a336a25ff2}, !- Handle
  Buffalo Niagara Intl Ap_NY,             !- Name
  42.93,                                  !- Latitude {deg}
  -78.73,                                 !- Longitude {deg}
  -5,                                     !- Time Zone {hr}
  215,                                    !- Elevation {m}
  Suburbs,                                !- Terrain
  Yes;                                    !- Keep Site Location Information

OS:RunPeriodControl:DaylightSavingTime,
  {177872d3-1cb7-456f-8812-6b88611f888f}, !- Handle
  Mar 12,                                 !- Start Date
  Nov 5;                                  !- End Date

OS:Site:GroundTemperature:Shallow,
  {84aae17b-2350-4c16-aec4-0be694e6fa03}, !- Handle
  4.30207395723828,                       !- January Surface Ground Temperature {C}
  2.29327249652502,                       !- February Surface Ground Temperature {C}
  2.13240047156047,                       !- March Surface Ground Temperature {C}
  3.08567940719286,                       !- April Surface Ground Temperature {C}
  6.91256312497526,                       !- May Surface Ground Temperature {C}
  10.7216195949507,                       !- June Surface Ground Temperature {C}
  14.0238679822574,                       !- July Surface Ground Temperature {C}
  16.1157611184724,                       !- August Surface Ground Temperature {C}
  16.2934789303462,                       !- September Surface Ground Temperature {C}
  14.5920754632847,                       !- October Surface Ground Temperature {C}
  11.374036348653,                        !- November Surface Ground Temperature {C}
  7.68182621661674;                       !- December Surface Ground Temperature {C}

OS:ThermalZone,
  {4592b3e4-c86b-4951-9343-fac05780ec74}, !- Handle
  conditioned space,                      !- Name
  1,                                      !- Multiplier
  ,                                       !- Ceiling Height {m}
  346.03186535424,                        !- Volume {m3}
  ,                                       !- Floor Area {m2}
  ,                                       !- Zone Inside Convection Algorithm
  ,                                       !- Zone Outside Convection Algorithm
  ,                                       !- Zone Conditioning Equipment List Name
  {b98d971b-4554-4d50-b2d1-c5321ecfc178}, !- Zone Air Inlet Port List
  {cf481c81-012b-47ea-a81a-e881e2cf24a5}, !- Zone Air Exhaust Port List
  {b94978fb-2a2a-4407-bf54-c72a2fd40361}, !- Zone Air Node Name
  {bad512ab-52c4-4a32-a058-c43b6841140f}, !- Zone Return Air Port List
  ,                                       !- Primary Daylighting Control Name
  ,                                       !- Fraction of Zone Controlled by Primary Daylighting Control
  ,                                       !- Secondary Daylighting Control Name
  ,                                       !- Fraction of Zone Controlled by Secondary Daylighting Control
  ,                                       !- Illuminance Map Name
  ,                                       !- Group Rendering Name
  {ab9559b1-e71d-4116-ab7f-6eb324de89d7}, !- Thermostat Name
  No;                                     !- Use Ideal Air Loads

OS:Node,
  {799cfc9e-5420-4ecd-a8d7-dd6f14140d98}, !- Handle
  Node 1,                                 !- Name
  {b94978fb-2a2a-4407-bf54-c72a2fd40361}, !- Inlet Port
  ;                                       !- Outlet Port

OS:Connection,
  {b94978fb-2a2a-4407-bf54-c72a2fd40361}, !- Handle
  {4592b3e4-c86b-4951-9343-fac05780ec74}, !- Source Object
  11,                                     !- Outlet Port
  {799cfc9e-5420-4ecd-a8d7-dd6f14140d98}, !- Target Object
  2;                                      !- Inlet Port

OS:PortList,
  {b98d971b-4554-4d50-b2d1-c5321ecfc178}, !- Handle
  {4592b3e4-c86b-4951-9343-fac05780ec74}, !- HVAC Component
  {ac9e7a98-07a0-434c-95fb-a487a809ee2e}; !- Port 1

OS:PortList,
  {cf481c81-012b-47ea-a81a-e881e2cf24a5}, !- Handle
  {4592b3e4-c86b-4951-9343-fac05780ec74}; !- HVAC Component

OS:PortList,
  {bad512ab-52c4-4a32-a058-c43b6841140f}, !- Handle
  {4592b3e4-c86b-4951-9343-fac05780ec74}, !- HVAC Component
  {5aafddf2-cd4a-46e0-9be3-d2610221e39f}; !- Port 1

OS:Sizing:Zone,
  {325ae0e6-a94c-46ac-9228-d51dc4c2b955}, !- Handle
  {4592b3e4-c86b-4951-9343-fac05780ec74}, !- Zone or ZoneList Name
  SupplyAirTemperature,                   !- Zone Cooling Design Supply Air Temperature Input Method
  14,                                     !- Zone Cooling Design Supply Air Temperature {C}
  11.11,                                  !- Zone Cooling Design Supply Air Temperature Difference {deltaC}
  SupplyAirTemperature,                   !- Zone Heating Design Supply Air Temperature Input Method
  40,                                     !- Zone Heating Design Supply Air Temperature {C}
  11.11,                                  !- Zone Heating Design Supply Air Temperature Difference {deltaC}
  0.0085,                                 !- Zone Cooling Design Supply Air Humidity Ratio {kg-H2O/kg-air}
  0.008,                                  !- Zone Heating Design Supply Air Humidity Ratio {kg-H2O/kg-air}
  ,                                       !- Zone Heating Sizing Factor
  ,                                       !- Zone Cooling Sizing Factor
  DesignDay,                              !- Cooling Design Air Flow Method
  ,                                       !- Cooling Design Air Flow Rate {m3/s}
  ,                                       !- Cooling Minimum Air Flow per Zone Floor Area {m3/s-m2}
  ,                                       !- Cooling Minimum Air Flow {m3/s}
  ,                                       !- Cooling Minimum Air Flow Fraction
  DesignDay,                              !- Heating Design Air Flow Method
  ,                                       !- Heating Design Air Flow Rate {m3/s}
  ,                                       !- Heating Maximum Air Flow per Zone Floor Area {m3/s-m2}
  ,                                       !- Heating Maximum Air Flow {m3/s}
  ,                                       !- Heating Maximum Air Flow Fraction
  No,                                     !- Account for Dedicated Outdoor Air System
  NeutralSupplyAir,                       !- Dedicated Outdoor Air System Control Strategy
  autosize,                               !- Dedicated Outdoor Air Low Setpoint Temperature for Design {C}
  autosize,                               !- Dedicated Outdoor Air High Setpoint Temperature for Design {C}
  Sensible Load Only No Latent Load,      !- Zone Load Sizing Method
  HumidityRatioDifference,                !- Zone Latent Cooling Design Supply Air Humidity Ratio Input Method
  ,                                       !- Zone Dehumidification Design Supply Air Humidity Ratio {kgWater/kgDryAir}
  0.005,                                  !- Zone Cooling Design Supply Air Humidity Ratio Difference {kgWater/kgDryAir}
  HumidityRatioDifference,                !- Zone Latent Heating Design Supply Air Humidity Ratio Input Method
  ,                                       !- Zone Humidification Design Supply Air Humidity Ratio {kgWater/kgDryAir}
  0.005,                                  !- Zone Humidification Design Supply Air Humidity Ratio Difference {kgWater/kgDryAir}
  ,                                       !- Zone Humidistat Dehumidification Set Point Schedule Name
  ,                                       !- Zone Humidistat Humidification Set Point Schedule Name
  ,                                       !- Design Zone Air Distribution Effectiveness in Cooling Mode
  ,                                       !- Design Zone Air Distribution Effectiveness in Heating Mode
  ,                                       !- Design Zone Secondary Recirculation Fraction {dimensionless}
  ,                                       !- Design Minimum Zone Ventilation Efficiency {dimensionless}
  Coincident;                             !- Sizing Option

OS:ZoneHVAC:EquipmentList,
  {ad35d24a-9ed5-49c7-af3c-52566cde836d}, !- Handle
  Zone HVAC Equipment List 1,             !- Name
  {4592b3e4-c86b-4951-9343-fac05780ec74}, !- Thermal Zone
  ,                                       !- Load Distribution Scheme
  {20c52d63-2e97-4972-80f0-31bd4bfb66dd}, !- Zone Equipment 1
  1,                                      !- Zone Equipment Cooling Sequence 1
  1,                                      !- Zone Equipment Heating or No-Load Sequence 1
  {1b4ae21d-f282-4bb1-a42d-b7446569998a}, !- Zone Equipment Sequential Cooling Fraction Schedule Name 1
  {08b89a58-d9b3-41e3-bb20-e2402e3ff86a}; !- Zone Equipment Sequential Heating Fraction Schedule Name 1

OS:AdditionalProperties,
  {13c6338b-c12c-4185-a197-bf6f4abbb8f3}, !- Handle
  {4592b3e4-c86b-4951-9343-fac05780ec74}, !- Object Name
  ObjectType,                             !- Feature Name 1
  String,                                 !- Feature Data Type 1
  conditioned space;                      !- Feature Value 1

OS:Space,
  {7e503768-176b-4827-b9ed-9c6291502bc1}, !- Handle
  conditioned space 1,                    !- Name
  ,                                       !- Space Type Name
  ,                                       !- Default Construction Set Name
  ,                                       !- Default Schedule Set Name
  ,                                       !- Direction of Relative North {deg}
  ,                                       !- X Origin {m}
  ,                                       !- Y Origin {m}
  ,                                       !- Z Origin {m}
  ,                                       !- Building Story Name
  {4592b3e4-c86b-4951-9343-fac05780ec74}, !- Thermal Zone Name
  ,                                       !- Part of Total Floor Area
  ,                                       !- Design Specification Outdoor Air Object Name
  ,                                       !- Building Unit Name
  346.03186535424;                        !- Volume {m3}

OS:Schedule:Ruleset,
  {8876cde2-3c65-4384-a015-5949103fa764}, !- Handle
  heating setpoint,                       !- Name
  {537ea691-ca19-4829-8289-a94ac59fdbf7}, !- Schedule Type Limits Name
  {2d05f97b-9c90-409f-8412-1e628c23c35e}; !- Default Day Schedule Name

OS:Schedule:Day,
  {2d05f97b-9c90-409f-8412-1e628c23c35e}, !- Handle
  heating setpoint default day,           !- Name
  {537ea691-ca19-4829-8289-a94ac59fdbf7}, !- Schedule Type Limits Name
  ,                                       !- Interpolate to Timestep
  24,                                     !- Hour 1
  0,                                      !- Minute 1
  0;                                      !- Value Until Time 1

OS:Schedule:Rule,
  {3954e658-ea5d-4211-aaa5-7ecd03e4edbf}, !- Handle
  heating setpoint allday rule,           !- Name
  {8876cde2-3c65-4384-a015-5949103fa764}, !- Schedule Ruleset Name
  0,                                      !- Rule Order
  {a00367d6-508d-4818-bb1d-8b36c62dc8f3}, !- Day Schedule Name
  Yes,                                    !- Apply Sunday
  Yes,                                    !- Apply Monday
  Yes,                                    !- Apply Tuesday
  Yes,                                    !- Apply Wednesday
  Yes,                                    !- Apply Thursday
  Yes,                                    !- Apply Friday
  Yes,                                    !- Apply Saturday
  DateRange,                              !- Date Specification Type
  1,                                      !- Start Month
  1,                                      !- Start Day
  12,                                     !- End Month
  31;                                     !- End Day

OS:Schedule:Day,
  {a00367d6-508d-4818-bb1d-8b36c62dc8f3}, !- Handle
  heating setpoint day,                   !- Name
  {537ea691-ca19-4829-8289-a94ac59fdbf7}, !- Schedule Type Limits Name
  ,                                       !- Interpolate to Timestep
  24,                                     !- Hour 1
  0,                                      !- Minute 1
  20;                                     !- Value Until Time 1

OS:Schedule:Ruleset,
  {4f925e02-10a2-492f-bd5f-d7dd8cdd17cd}, !- Handle
  cooling setpoint,                       !- Name
  {537ea691-ca19-4829-8289-a94ac59fdbf7}, !- Schedule Type Limits Name
  {17f7e617-89e4-4b37-87de-f46e439c9e6b}; !- Default Day Schedule Name

OS:Schedule:Day,
  {17f7e617-89e4-4b37-87de-f46e439c9e6b}, !- Handle
  cooling setpoint default day,           !- Name
  {537ea691-ca19-4829-8289-a94ac59fdbf7}, !- Schedule Type Limits Name
  ,                                       !- Interpolate to Timestep
  24,                                     !- Hour 1
  0,                                      !- Minute 1
  0;                                      !- Value Until Time 1

OS:Schedule:Rule,
  {7aa879bc-b954-416c-8d03-388f95f87766}, !- Handle
  cooling setpoint allday rule,           !- Name
  {4f925e02-10a2-492f-bd5f-d7dd8cdd17cd}, !- Schedule Ruleset Name
  0,                                      !- Rule Order
  {04c65166-7d00-42da-8cf3-e7fec765e60e}, !- Day Schedule Name
  Yes,                                    !- Apply Sunday
  Yes,                                    !- Apply Monday
  Yes,                                    !- Apply Tuesday
  Yes,                                    !- Apply Wednesday
  Yes,                                    !- Apply Thursday
  Yes,                                    !- Apply Friday
  Yes,                                    !- Apply Saturday
  DateRange,                              !- Date Specification Type
  1,                                      !- Start Month
  1,                                      !- Start Day
  12,                                     !- End Month
  31;                                     !- End Day

OS:Schedule:Day,
  {04c65166-7d00-42da-8cf3-e7fec765e60e}, !- Handle
  cooling setpoint day,                   !- Name
  {537ea691-ca19-4829-8289-a94ac59fdbf7}, !- Schedule Type Limits Name
  ,                                       !- Interpolate to Timestep
  24,                                     !- Hour 1
  0,                                      !- Minute 1
  25.5555555555556;                       !- Value Until Time 1

OS:ThermostatSetpoint:DualSetpoint,
  {ab9559b1-e71d-4116-ab7f-6eb324de89d7}, !- Handle
  conditioned space temperature setpoint, !- Name
  {8876cde2-3c65-4384-a015-5949103fa764}, !- Heating Setpoint Temperature Schedule Name
  {4f925e02-10a2-492f-bd5f-d7dd8cdd17cd}, !- Cooling Setpoint Temperature Schedule Name
  0;                                      !- Temperature Difference Between Cutout And Setpoint {deltaC}

OS:ScheduleTypeLimits,
  {537ea691-ca19-4829-8289-a94ac59fdbf7}, !- Handle
  Temperature,                            !- Name
  ,                                       !- Lower Limit Value
  ,                                       !- Upper Limit Value
  Continuous,                             !- Numeric Type
  Temperature;                            !- Unit Type

OS:Surface,
  {0af8955d-8ebd-4619-9c6b-c6d22971a6b9}, !- Handle
  Roof1,                                  !- Name
  RoofCeiling,                            !- Surface Type
  {8fcbf9df-f9bf-4f3a-a0e4-e67a4781c62f}, !- Construction Name
  {12c18e95-8503-4b53-80e7-4f5d0bb1f734}, !- Space Name
  Outdoors,                               !- Outside Boundary Condition
  ,                                       !- Outside Boundary Condition Object
  SunExposed,                             !- Sun Exposure
  WindExposed,                            !- Wind Exposure
  ,                                       !- View Factor to Ground
  ,                                       !- Number of Vertices
  -25.0448166683368, 35.3267874683368, 2.4384, !- X,Y,Z Vertex 1 {m}
  -25.0448166683368, 27.3603626312596, 6.42161241853859, !- X,Y,Z Vertex 2 {m}
  -16.1380829316632, 27.3603626312596, 6.42161241853859, !- X,Y,Z Vertex 3 {m}
  -16.1380829316632, 35.3267874683368, 2.4384; !- X,Y,Z Vertex 4 {m}

OS:AdditionalProperties,
  {10fd4d2d-9a21-4afa-b62b-09f5db16ed90}, !- Handle
  {0af8955d-8ebd-4619-9c6b-c6d22971a6b9}, !- Object Name
  Length,                                 !- Feature Name 1
  Double,                                 !- Feature Data Type 1
  29.221567377538118,                     !- Feature Value 1
  Width,                                  !- Feature Name 2
  Double,                                 !- Feature Data Type 2
  29.221567377538118,                     !- Feature Value 2
  Azimuth,                                !- Feature Name 3
  Integer,                                !- Feature Data Type 3
  0,                                      !- Feature Value 3
  Tilt,                                   !- Feature Name 4
  Double,                                 !- Feature Data Type 4
  0.5,                                    !- Feature Value 4
  SurfaceType,                            !- Feature Name 5
  String,                                 !- Feature Data Type 5
  Roof;                                   !- Feature Value 5

OS:ThermalZone,
  {38b4aae1-3dc9-4e9f-bac6-aee81f261c3d}, !- Handle
  attic - vented,                         !- Name
  1,                                      !- Multiplier
  ,                                       !- Ceiling Height {m}
  126.002877704413,                       !- Volume {m3}
  ,                                       !- Floor Area {m2}
  ,                                       !- Zone Inside Convection Algorithm
  ,                                       !- Zone Outside Convection Algorithm
  ,                                       !- Zone Conditioning Equipment List Name
  {00d4216e-21c9-4e1e-88c7-f852fd7d08be}, !- Zone Air Inlet Port List
  {84531b51-ed3a-49d5-87be-7cb355df05dd}, !- Zone Air Exhaust Port List
  {cf4cd364-4660-4bf0-912a-4107df0c6fd6}, !- Zone Air Node Name
  {be0b5fba-d37a-4ec8-b211-395726978d1a}, !- Zone Return Air Port List
  ,                                       !- Primary Daylighting Control Name
  ,                                       !- Fraction of Zone Controlled by Primary Daylighting Control
  ,                                       !- Secondary Daylighting Control Name
  ,                                       !- Fraction of Zone Controlled by Secondary Daylighting Control
  ,                                       !- Illuminance Map Name
  ,                                       !- Group Rendering Name
  ,                                       !- Thermostat Name
  No;                                     !- Use Ideal Air Loads

OS:Node,
  {cf655a4f-e0ec-4a33-b5fd-944149bd4526}, !- Handle
  Node 2,                                 !- Name
  {cf4cd364-4660-4bf0-912a-4107df0c6fd6}, !- Inlet Port
  ;                                       !- Outlet Port

OS:Connection,
  {cf4cd364-4660-4bf0-912a-4107df0c6fd6}, !- Handle
  {38b4aae1-3dc9-4e9f-bac6-aee81f261c3d}, !- Source Object
  11,                                     !- Outlet Port
  {cf655a4f-e0ec-4a33-b5fd-944149bd4526}, !- Target Object
  2;                                      !- Inlet Port

OS:PortList,
  {00d4216e-21c9-4e1e-88c7-f852fd7d08be}, !- Handle
  {38b4aae1-3dc9-4e9f-bac6-aee81f261c3d}; !- HVAC Component

OS:PortList,
  {84531b51-ed3a-49d5-87be-7cb355df05dd}, !- Handle
  {38b4aae1-3dc9-4e9f-bac6-aee81f261c3d}; !- HVAC Component

OS:PortList,
  {be0b5fba-d37a-4ec8-b211-395726978d1a}, !- Handle
  {38b4aae1-3dc9-4e9f-bac6-aee81f261c3d}; !- HVAC Component

OS:Sizing:Zone,
  {f15698c4-f65a-4edc-b2e6-0499dda4990a}, !- Handle
  {38b4aae1-3dc9-4e9f-bac6-aee81f261c3d}, !- Zone or ZoneList Name
  SupplyAirTemperature,                   !- Zone Cooling Design Supply Air Temperature Input Method
  14,                                     !- Zone Cooling Design Supply Air Temperature {C}
  11.11,                                  !- Zone Cooling Design Supply Air Temperature Difference {deltaC}
  SupplyAirTemperature,                   !- Zone Heating Design Supply Air Temperature Input Method
  40,                                     !- Zone Heating Design Supply Air Temperature {C}
  11.11,                                  !- Zone Heating Design Supply Air Temperature Difference {deltaC}
  0.0085,                                 !- Zone Cooling Design Supply Air Humidity Ratio {kg-H2O/kg-air}
  0.008,                                  !- Zone Heating Design Supply Air Humidity Ratio {kg-H2O/kg-air}
  ,                                       !- Zone Heating Sizing Factor
  ,                                       !- Zone Cooling Sizing Factor
  DesignDay,                              !- Cooling Design Air Flow Method
  ,                                       !- Cooling Design Air Flow Rate {m3/s}
  ,                                       !- Cooling Minimum Air Flow per Zone Floor Area {m3/s-m2}
  ,                                       !- Cooling Minimum Air Flow {m3/s}
  ,                                       !- Cooling Minimum Air Flow Fraction
  DesignDay,                              !- Heating Design Air Flow Method
  ,                                       !- Heating Design Air Flow Rate {m3/s}
  ,                                       !- Heating Maximum Air Flow per Zone Floor Area {m3/s-m2}
  ,                                       !- Heating Maximum Air Flow {m3/s}
  ,                                       !- Heating Maximum Air Flow Fraction
  No,                                     !- Account for Dedicated Outdoor Air System
  NeutralSupplyAir,                       !- Dedicated Outdoor Air System Control Strategy
  autosize,                               !- Dedicated Outdoor Air Low Setpoint Temperature for Design {C}
  autosize,                               !- Dedicated Outdoor Air High Setpoint Temperature for Design {C}
  Sensible Load Only No Latent Load,      !- Zone Load Sizing Method
  HumidityRatioDifference,                !- Zone Latent Cooling Design Supply Air Humidity Ratio Input Method
  ,                                       !- Zone Dehumidification Design Supply Air Humidity Ratio {kgWater/kgDryAir}
  0.005,                                  !- Zone Cooling Design Supply Air Humidity Ratio Difference {kgWater/kgDryAir}
  HumidityRatioDifference,                !- Zone Latent Heating Design Supply Air Humidity Ratio Input Method
  ,                                       !- Zone Humidification Design Supply Air Humidity Ratio {kgWater/kgDryAir}
  0.005,                                  !- Zone Humidification Design Supply Air Humidity Ratio Difference {kgWater/kgDryAir}
  ,                                       !- Zone Humidistat Dehumidification Set Point Schedule Name
  ,                                       !- Zone Humidistat Humidification Set Point Schedule Name
  ,                                       !- Design Zone Air Distribution Effectiveness in Cooling Mode
  ,                                       !- Design Zone Air Distribution Effectiveness in Heating Mode
  ,                                       !- Design Zone Secondary Recirculation Fraction {dimensionless}
  ,                                       !- Design Minimum Zone Ventilation Efficiency {dimensionless}
  Coincident;                             !- Sizing Option

OS:ZoneHVAC:EquipmentList,
  {13b546f6-60fc-4a07-8103-6f116c0dd4df}, !- Handle
  Zone HVAC Equipment List 2,             !- Name
  {38b4aae1-3dc9-4e9f-bac6-aee81f261c3d}; !- Thermal Zone

OS:AdditionalProperties,
  {d36d4a90-b989-47ab-97a6-04146ec635e5}, !- Handle
  {38b4aae1-3dc9-4e9f-bac6-aee81f261c3d}, !- Object Name
  ObjectType,                             !- Feature Name 1
  String,                                 !- Feature Data Type 1
  attic - vented;                         !- Feature Value 1

OS:Space,
  {12c18e95-8503-4b53-80e7-4f5d0bb1f734}, !- Handle
  attic - vented 1,                       !- Name
  ,                                       !- Space Type Name
  ,                                       !- Default Construction Set Name
  ,                                       !- Default Schedule Set Name
  ,                                       !- Direction of Relative North {deg}
  ,                                       !- X Origin {m}
  ,                                       !- Y Origin {m}
  ,                                       !- Z Origin {m}
  ,                                       !- Building Story Name
  {38b4aae1-3dc9-4e9f-bac6-aee81f261c3d}, !- Thermal Zone Name
  ,                                       !- Part of Total Floor Area
  ,                                       !- Design Specification Outdoor Air Object Name
  ,                                       !- Building Unit Name
  126.002877704413;                       !- Volume {m3}

OS:Material,
  {41d754d5-5c52-4bc9-8d9d-52fd2f061100}, !- Handle
  asphalt or fiberglass shingles,         !- Name
  Rough,                                  !- Roughness
  0.00635,                                !- Thickness {m}
  0.162714,                               !- Conductivity {W/m-K}
  1121.4,                                 !- Density {kg/m3}
  1465.45,                                !- Specific Heat {J/kg-K}
  0.9,                                    !- Thermal Absorptance
  0.85,                                   !- Solar Absorptance