
OS:Version,
  {56c333c5-013b-4dc8-8b71-279cbd8ac320}, !- Handle
  3.10.0;                                 !- Version Identifier

OS:SimulationControl,
  {38de7081-0661-4ce9-9ecc-31b5f1380923}, !- Handle
  ,                                       !- Do Zone Sizing Calculation
  ,                                       !- Do System Sizing Calculation
  ,                                       !- Do Plant Sizing Calculation
  No;                                     !- Run Simulation for Sizing Periods

OS:Timestep,
  {a66da532-6e0a-49a0-97c9-1fd2c1db1f0a}, !- Handle
  1;                                      !- Number of Timesteps per Hour

OS:ShadowCalculation,
  {58b2aa40-33d1-4014-90a5-6ccd26a64c7d}, !- Handle
  PolygonClipping,                        !- Shading Calculation Method
  ,                                       !- Shading Calculation Update Frequency Method
  20,                                     !- Shading Calculation Update Frequency
  200,                                    !- Maximum Figures in Shadow Overlap Calculations
  ,                                       !- Polygon Clipping Algorithm
  512,                                    !- Pixel Counting Resolution
  ,                                       !- Sky Diffuse Modeling Algorithm
  No,                                     !- Output External Shading Calculation Results
  No,                                     !- Disable Self-Shading Within Shading Zone Groups
  No;                                     !- Disable Self-Shading From Shading Zone Groups to Other Zones

OS:SurfaceConvectionAlgorithm:Outside,
  {aa6a7cc7-b7d4-4097-89fd-d0fe6967e4c6}, !- Handle
  DOE-2;                                  !- Algorithm

OS:SurfaceConvectionAlgorithm:Inside,
  {f0767468-baab-437c-bda1-ecdc0bb4ab76}, !- Handle
  TARP;                                   !- Algorithm

OS:ZoneCapacitanceMultiplier:ResearchSpecial,
  {fda786c6-c808-4013-b557-aa05c0fefeea}, !- Handle
  7,                                      !- Temperature Capacity Multiplier
  15,                                     !- Humidity Capacity Multiplier
  ;                                       !- Carbon Dioxide Capacity Multiplier

OS:ConvergenceLimits,
  {233ce4dc-f1b5-4b7c-8e5c-e6c884764af0}, !- Handle
  0;                                      !- Minimum System Timestep {minutes}

OS:RunPeriod,
  {90f70a7f-9a87-4351-93a2-dc41decdfd98}, !- Handle
  Run Period 1,                           !- Name
  1,                                      !- Begin Month
  1,                                      !- Begin Day of Month
  12,                                     !- End Month
  31,                                     !- End Day of Month
  ,                                       !- Use Weather File Holidays and Special Days
  ,                                       !- Use Weather File Daylight Saving Period
  ,                                       !- Apply Weekend Holiday Rule
  ,                                       !- Use Weather File Rain Indicators
  ,                                       !- Use Weather File Snow Indicators
  ;                                       !- Number of Times Runperiod to be Repeated

OS:PerformancePrecisionTradeoffs,
  {190e0665-49b1-4077-8e5d-3a67fd6482b8}, !- Handle
  ,                                       !- Use Coil Direct Solutions
  CarrollMRT;                             !- Zone Radiant Exchange Algorithm

OS:WeatherFile,
  {fb0b6411-d797-4fac-a402-297f8f417cc0}, !- Handle
  Buffalo Niagara Intl Ap,                !- City
  NY,                                     !- State Province Region
  USA,                                    !- Country
  TMY3,                                   !- Data Source
  725280,                                 !- WMO Number
  42.93,                                  !- Latitude {deg}
  -78.73,                                 !- Longitude {deg}
  -5,                                     !- Time Zone {hr}
  215,                                    !- Elevation {m}
  /Users/nmoore/github/urbanopt-example-geojson-project/example_project/weather/USA_NY_Buffalo-Greater.Buffalo.Intl.AP.725280_TMY3.epw, !- Url
  6B50E0FF,                               !- Checksum
  ,                                       !- Start Date Actual Year
  Sunday;                                 !- Start Day of Week

OS:YearDescription,
  {b1765347-6dbd-42a2-9c67-1bf5b028b80a}, !- Handle
  2007,                                   !- Calendar Year
  ,                                       !- Day of Week for Start Day
  ;                                       !- Is Leap Year

OS:Site,
  {6ce92bd3-9c2b-45ac-9046-6c428c8078b2}, !- Handle
  Buffalo Niagara Intl Ap_NY,             !- Name
  42.93,                                  !- Latitude {deg}
  -78.73,                                 !- Longitude {deg}
  -5,                                     !- Time Zone {hr}
  215,                                    !- Elevation {m}
  Suburbs,                                !- Terrain
  Yes;                                    !- Keep Site Location Information

OS:RunPeriodControl:DaylightSavingTime,
  {b72f1591-a01c-40ff-8ad4-c868a2ace338}, !- Handle
  Mar 12,                                 !- Start Date
  Nov 5;                                  !- End Date

OS:Site:GroundTemperature:Shallow,
  {14829b65-d688-4162-9028-f233a68c8e3a}, !- Handle
  4.30207395723828,                       !- January Surface Ground Temperature {C}
  2.29327249652502,                       !- February Surface Ground Temperature {C}
  2.13240047156047,                       !- March Surface Ground Temperature {C}
  3.08567940719286,                       !- April Surface Ground Temperature {C}
  6.91256312497526,                       !- May Surface Ground Temperature {C}
  10.7216195949507,                       !- June Surface Ground Temperature {C}
  14.0238679822574,                       !- July Surface Ground Temperature {C}
  16.1157611184724,                       !- August Surface Ground Temperature {C}
  16.2934789303462,                       !- September Surface Ground Temperature {C}
  14.5920754632847,                       !- October Surface Ground Temperature {C}
  11.374036348653,                        !- November Surface Ground Temperature {C}
  7.68182621661674;                       !- December Surface Ground Temperature {C}

OS:ThermalZone,
  {c6e03c93-d73c-47df-bb2f-03f481cb21a8}, !- Handle
  conditioned space,                      !- Name
  1,                                      !- Multiplier
  ,                                       !- Ceiling Height {m}
  692.06373070848,                        !- Volume {m3}
  ,                                       !- Floor Area {m2}
  ,                                       !- Zone Inside Convection Algorithm
  ,                                       !- Zone Outside Convection Algorithm
  ,                                       !- Zone Conditioning Equipment List Name
  {1981d182-1bab-4653-ae37-977ac44ed1d5}, !- Zone Air Inlet Port List
  {449c11e9-98de-447b-a7b7-a20c2e74aba9}, !- Zone Air Exhaust Port List
  {6cbb1a59-6fc5-47e1-9275-4f8ead83f2a6}, !- Zone Air Node Name
  {aae1a346-9bf8-46a9-a9a4-bac1207a92fe}, !- Zone Return Air Port List
  ,                                       !- Primary Daylighting Control Name
  ,                                       !- Fraction of Zone Controlled by Primary Daylighting Control
  ,                                       !- Secondary Daylighting Control Name
  ,                                       !- Fraction of Zone Controlled by Secondary Daylighting Control
  ,                                       !- Illuminance Map Name
  ,                                       !- Group Rendering Name
  {341a2823-1af3-4568-a470-ab58ee9f10ad}, !- Thermostat Name
  No;                                     !- Use Ideal Air Loads

OS:Node,
  {b23d41f8-8fc0-4aa3-8fde-8366b370c4c7}, !- Handle
  Node 1,                                 !- Name
  {6cbb1a59-6fc5-47e1-9275-4f8ead83f2a6}, !- Inlet Port
  ;                                       !- Outlet Port

OS:Connection,
  {6cbb1a59-6fc5-47e1-9275-4f8ead83f2a6}, !- Handle
  {c6e03c93-d73c-47df-bb2f-03f481cb21a8}, !- Source Object
  11,                                     !- Outlet Port
  {b23d41f8-8fc0-4aa3-8fde-8366b370c4c7}, !- Target Object
  2;                                      !- Inlet Port

OS:PortList,
  {1981d182-1bab-4653-ae37-977ac44ed1d5}, !- Handle
  {c6e03c93-d73c-47df-bb2f-03f481cb21a8}, !- HVAC Component
  {0e2162d7-b589-4042-a54e-fec523b1bda8}; !- Port 1

OS:PortList,
  {449c11e9-98de-447b-a7b7-a20c2e74aba9}, !- Handle
  {c6e03c93-d73c-47df-bb2f-03f481cb21a8}; !- HVAC Component

OS:PortList,
  {aae1a346-9bf8-46a9-a9a4-bac1207a92fe}, !- Handle
  {c6e03c93-d73c-47df-bb2f-03f481cb21a8}, !- HVAC Component
  {5507ecb0-c789-454d-b8d3-9362e79ac31c}; !- Port 1

OS:Sizing:Zone,
  {67d5f297-be8b-4958-bcb0-ee4b019d7d08}, !- Handle
  {c6e03c93-d73c-47df-bb2f-03f481cb21a8}, !- Zone or ZoneList Name
  SupplyAirTemperature,                   !- Zone Cooling Design Supply Air Temperature Input Method
  14,                                     !- Zone Cooling Design Supply Air Temperature {C}
  11.11,                                  !- Zone Cooling Design Supply Air Temperature Difference {deltaC}
  SupplyAirTemperature,                   !- Zone Heating Design Supply Air Temperature Input Method
  40,                                     !- Zone Heating Design Supply Air Temperature {C}
  11.11,                                  !- Zone Heating Design Supply Air Temperature Difference {deltaC}
  0.0085,                                 !- Zone Cooling Design Supply Air Humidity Ratio {kg-H2O/kg-air}
  0.008,                                  !- Zone Heating Design Supply Air Humidity Ratio {kg-H2O/kg-air}
  ,                                       !- Zone Heating Sizing Factor
  ,                                       !- Zone Cooling Sizing Factor
  DesignDay,                              !- Cooling Design Air Flow Method
  ,                                       !- Cooling Design Air Flow Rate {m3/s}
  ,                                       !- Cooling Minimum Air Flow per Zone Floor Area {m3/s-m2}
  ,                                       !- Cooling Minimum Air Flow {m3/s}
  ,                                       !- Cooling Minimum Air Flow Fraction
  DesignDay,                              !- Heating Design Air Flow Method
  ,                                       !- Heating Design Air Flow Rate {m3/s}
  ,                                       !- Heating Maximum Air Flow per Zone Floor Area {m3/s-m2}
  ,                                       !- Heating Maximum Air Flow {m3/s}
  ,                                       !- Heating Maximum Air Flow Fraction
  No,                                     !- Account for Dedicated Outdoor Air System
  NeutralSupplyAir,                       !- Dedicated Outdoor Air System Control Strategy
  autosize,                               !- Dedicated Outdoor Air Low Setpoint Temperature for Design {C}
  autosize,                               !- Dedicated Outdoor Air High Setpoint Temperature for Design {C}
  Sensible Load Only No Latent Load,      !- Zone Load Sizing Method
  HumidityRatioDifference,                !- Zone Latent Cooling Design Supply Air Humidity Ratio Input Method
  ,                                       !- Zone Dehumidification Design Supply Air Humidity Ratio {kgWater/kgDryAir}
  0.005,                                  !- Zone Cooling Design Supply Air Humidity Ratio Difference {kgWater/kgDryAir}
  HumidityRatioDifference,                !- Zone Latent Heating Design Supply Air Humidity Ratio Input Method
  ,                                       !- Zone Humidification Design Supply Air Humidity Ratio {kgWater/kgDryAir}
  0.005,                                  !- Zone Humidification Design Supply Air Humidity Ratio Difference {kgWater/kgDryAir}
  ,                                       !- Zone Humidistat Dehumidification Set Point Schedule Name
  ,                                       !- Zone Humidistat Humidification Set Point Schedule Name
  ,                                       !- Design Zone Air Distribution Effectiveness in Cooling Mode
  ,                                       !- Design Zone Air Distribution Effectiveness in Heating Mode
  ,                                       !- Design Zone Secondary Recirculation Fraction {dimensionless}
  ,                                       !- Design Minimum Zone Ventilation Efficiency {dimensionless}
  Coincident;                             !- Sizing Option

OS:ZoneHVAC:EquipmentList,
  {5859a7ca-6e5e-440c-aec4-66355a4cf27b}, !- Handle
  Zone HVAC Equipment List 1,             !- Name
  {c6e03c93-d73c-47df-bb2f-03f481cb21a8}, !- Thermal Zone
  ,                                       !- Load Distribution Scheme
  {1c90bdbb-29fb-45fe-b65a-67da61b59626}, !- Zone Equipment 1
  1,                                      !- Zone Equipment Cooling Sequence 1
  1,                                      !- Zone Equipment Heating or No-Load Sequence 1
  {deba3b17-1d2e-4885-bdfe-af4ae9554e9f}, !- Zone Equipment Sequential Cooling Fraction Schedule Name 1
  {f6f8d2b9-4613-4303-b404-51561ce23208}, !- Zone Equipment Sequential Heating Fraction Schedule Name 1
  {b0a3b013-a6ee-4441-b5e4-ce009116cb5e}, !- Zone Equipment 2
  2,                                      !- Zone Equipment Cooling Sequence 2
  2,                                      !- Zone Equipment Heating or No-Load Sequence 2
  {63bed89d-cff4-428a-acaf-02a7904cdd59}, !- Zone Equipment Sequential Cooling Fraction Schedule Name 2
  {3f34fd1e-4ae8-4cd4-967c-fb9b138a8b0f}; !- Zone Equipment Sequential Heating Fraction Schedule Name 2

OS:AdditionalProperties,
  {0f5a012e-74bf-4164-8b4c-cc433a2d45f4}, !- Handle
  {c6e03c93-d73c-47df-bb2f-03f481cb21a8}, !- Object Name
  ObjectType,                             !- Feature Name 1
  String,                                 !- Feature Data Type 1
  conditioned space;                      !- Feature Value 1

OS:Space,
  {62d35527-e25f-4318-87fe-7ea67f5e35fc}, !- Handle
  conditioned space 1,                    !- Name
  ,                                       !- Space Type Name
  ,                                       !- Default Construction Set Name
  ,                                       !- Default Schedule Set Name
  ,                                       !- Direction of Relative North {deg}
  ,                                       !- X Origin {m}
  ,                                       !- Y Origin {m}
  ,                                       !- Z Origin {m}
  ,                                       !- Building Story Name
  {c6e03c93-d73c-47df-bb2f-03f481cb21a8}, !- Thermal Zone Name
  ,                                       !- Part of Total Floor Area
  ,                                       !- Design Specification Outdoor Air Object Name
  ,                                       !- Building Unit Name
  692.06373070848;                        !- Volume {m3}

OS:Schedule:Ruleset,
  {e1c3351d-0355-4329-8252-f3a8dfffd3ff}, !- Handle
  heating setpoint,                       !- Name
  {77ff0136-1e71-4d3d-9c29-1de526ee53ec}, !- Schedule Type Limits Name
  {38237cc9-c8e5-4666-94e4-13f28dc9347f}; !- Default Day Schedule Name

OS:Schedule:Day,
  {38237cc9-c8e5-4666-94e4-13f28dc9347f}, !- Handle
  heating setpoint default day,           !- Name
  {77ff0136-1e71-4d3d-9c29-1de526ee53ec}, !- Schedule Type Limits Name
  ,                                       !- Interpolate to Timestep
  24,                                     !- Hour 1
  0,                                      !- Minute 1
  0;                                      !- Value Until Time 1

OS:Schedule:Rule,
  {0b60b1f0-ebb0-4f42-ab81-fe71143faa39}, !- Handle
  heating setpoint allday rule,           !- Name
  {e1c3351d-0355-4329-8252-f3a8dfffd3ff}, !- Schedule Ruleset Name
  0,                                      !- Rule Order
  {7a081520-2a31-4f0d-b1c3-05d236615c53}, !- Day Schedule Name
  Yes,                                    !- Apply Sunday
  Yes,                                    !- Apply Monday
  Yes,                                    !- Apply Tuesday
  Yes,                                    !- Apply Wednesday
  Yes,                                    !- Apply Thursday
  Yes,                                    !- Apply Friday
  Yes,                                    !- Apply Saturday
  DateRange,                              !- Date Specification Type
  1,                                      !- Start Month
  1,                                      !- Start Day
  12,                                     !- End Month
  31;                                     !- End Day

OS:Schedule:Day,
  {7a081520-2a31-4f0d-b1c3-05d236615c53}, !- Handle
  heating setpoint day,                   !- Name
  {77ff0136-1e71-4d3d-9c29-1de526ee53ec}, !- Schedule Type Limits Name
  ,                                       !- Interpolate to Timestep
  24,                                     !- Hour 1
  0,                                      !- Minute 1
  20;                                     !- Value Until Time 1

OS:Schedule:Ruleset,
  {e7c09c22-fed5-4322-8721-1deb3f35f7d9}, !- Handle
  cooling setpoint,                       !- Name
  {77ff0136-1e71-4d3d-9c29-1de526ee53ec}, !- Schedule Type Limits Name
  {5c369158-dbcf-4b5b-82d1-b42163595d44}; !- Default Day Schedule Name

OS:Schedule:Day,
  {5c369158-dbcf-4b5b-82d1-b42163595d44}, !- Handle
  cooling setpoint default day,           !- Name
  {77ff0136-1e71-4d3d-9c29-1de526ee53ec}, !- Schedule Type Limits Name
  ,                                       !- Interpolate to Timestep
  24,                                     !- Hour 1
  0,                                      !- Minute 1
  0;                                      !- Value Until Time 1

OS:Schedule:Rule,
  {60171f64-5b41-4992-ae34-96ce3beb397b}, !- Handle
  cooling setpoint allday rule,           !- Name
  {e7c09c22-fed5-4322-8721-1deb3f35f7d9}, !- Schedule Ruleset Name
  0,                                      !- Rule Order
  {127e1e3e-758a-4c8a-95ef-a82d2f5039da}, !- Day Schedule Name
  Yes,                                    !- Apply Sunday
  Yes,                                    !- Apply Monday
  Yes,                                    !- Apply Tuesday
  Yes,                                    !- Apply Wednesday
  Yes,                                    !- Apply Thursday
  Yes,                                    !- Apply Friday
  Yes,                                    !- Apply Saturday
  DateRange,                              !- Date Specification Type
  1,                                      !- Start Month
  1,                                      !- Start Day
  12,                                     !- End Month
  31;                                     !- End Day

OS:Schedule:Day,
  {127e1e3e-758a-4c8a-95ef-a82d2f5039da}, !- Handle
  cooling setpoint day,                   !- Name
  {77ff0136-1e71-4d3d-9c29-1de526ee53ec}, !- Schedule Type Limits Name
  ,                                       !- Interpolate to Timestep
  24,                                     !- Hour 1
  0,                                      !- Minute 1
  25.5555555555556;                       !- Value Until Time 1

OS:ThermostatSetpoint:DualSetpoint,
  {341a2823-1af3-4568-a470-ab58ee9f10ad}, !- Handle
  conditioned space temperature setpoint, !- Name
  {e1c3351d-0355-4329-8252-f3a8dfffd3ff}, !- Heating Setpoint Temperature Schedule Name
  {e7c09c22-fed5-4322-8721-1deb3f35f7d9}, !- Cooling Setpoint Temperature Schedule Name
  0;                                      !- Temperature Difference Between Cutout And Setpoint {deltaC}

OS:ScheduleTypeLimits,
  {77ff0136-1e71-4d3d-9c29-1de526ee53ec}, !- Handle
  Temperature,                            !- Name
  ,                                       !- Lower Limit Value
  ,                                       !- Upper Limit Value
  Continuous,                             !- Numeric Type
  Temperature;                            !- Unit Type

OS:Surface,
  {18a39fed-8233-4604-baf2-fca86266cf14}, !- Handle
  Roof1,                                  !- Name
  RoofCeiling,                            !- Surface Type
  {1b8c26a9-e7da-4129-a67a-fbcc2d178bb9}, !- Construction Name
  {e1b8493d-c5da-4fe4-870d-03b7c7e792af}, !- Space Name
  Outdoors,                               !- Outside Boundary Condition
  ,                                       !- Outside Boundary Condition Object
  SunExposed,                             !- Sun Exposure
  WindExposed,                            !- Wind Exposure
  ,                                       !- View Factor to Ground
  ,                                       !- Number of Vertices
  -26.9347048849634, 58.0557891618865, 2.4384, !- X,Y,Z Vertex 1 {m}
  -26.9347048849634, 46.7895631136661, 8.0715130241102, !- X,Y,Z Vertex 2 {m}
  -14.3386812381136, 46.7895631136661, 8.0715130241102, !- X,Y,Z Vertex 3 {m}
  -14.3386812381136, 58.0557891618865, 2.4384; !- X,Y,Z Vertex 4 {m}

OS:AdditionalProperties,
  {c7f04035-761a-4a37-9f41-767c31f05615}, !- Handle
  {18a39fed-8233-4604-baf2-fca86266cf14}, !- Object Name
  Length,                                 !- Feature Name 1
  Double,                                 !- Feature Data Type 1
  41.325536899113608,                     !- Feature Value 1
  Width,                                  !- Feature Name 2
  Double,                                 !- Feature Data Type 2
  41.325536899113601,                     !- Feature Value 2
  Azimuth,                                !- Feature Name 3
  Integer,                                !- Feature Data Type 3
  0,                                      !- Feature Value 3
  Tilt,                                   !- Feature Name 4
  Double,                                 !- Feature Data Type 4
  0.5,                                    !- Feature Value 4
  SurfaceType,                            !- Feature Name 5
  String,                                 !- Feature Data Type 5
  Roof;                                   !- Feature Value 5

OS:ThermalZone,
  {c034e980-f8f6-48a6-93c4-ed7ba9b42012}, !- Handle
  attic - vented,                         !- Name
  1,                                      !- Multiplier
  ,                                       !- Ceiling Height {m}
  356.390921899745,                       !- Volume {m3}
  ,                                       !- Floor Area {m2}
  ,                                       !- Zone Inside Convection Algorithm
  ,                                       !- Zone Outside Convection Algorithm
  ,                                       !- Zone Conditioning Equipment List Name
  {fc427eab-98b9-48fc-abce-d247ad1814c0}, !- Zone Air Inlet Port List
  {747d0ba9-a0e4-4417-bf8e-5c1380b093aa}, !- Zone Air Exhaust Port List
  {244d4dad-4ef2-4a70-80c8-f2b5ada896b6}, !- Zone Air Node Name
  {0447e4a3-9673-4053-aeb4-7ebc21203944}, !- Zone Return Air Port List
  ,                                       !- Primary Daylighting Control Name
  ,                                       !- Fraction of Zone Controlled by Primary Daylighting Control
  ,                                       !- Secondary Daylighting Control Name
  ,                                       !- Fraction of Zone Controlled by Secondary Daylighting Control
  ,                                       !- Illuminance Map Name
  ,                                       !- Group Rendering Name
  ,                                       !- Thermostat Name
  No;                                     !- Use Ideal Air Loads

OS:Node,
  {b9cf1762-9ddb-40b8-b3cf-167a7a417289}, !- Handle
  Node 2,                                 !- Name
  {244d4dad-4ef2-4a70-80c8-f2b5ada896b6}, !- Inlet Port
  ;                                       !- Outlet Port

OS:Connection,
  {244d4dad-4ef2-4a70-80c8-f2b5ada896b6}, !- Handle
  {c034e980-f8f6-48a6-93c4-ed7ba9b42012}, !- Source Object
  11,                                     !- Outlet Port
  {b9cf1762-9ddb-40b8-b3cf-167a7a417289}, !- Target Object
  2;                                      !- Inlet Port

OS:PortList,
  {fc427eab-98b9-48fc-abce-d247ad1814c0}, !- Handle
  {c034e980-f8f6-48a6-93c4-ed7ba9b42012}; !- HVAC Component

OS:PortList,
  {747d0ba9-a0e4-4417-bf8e-5c1380b093aa}, !- Handle
  {c034e980-f8f6-48a6-93c4-ed7ba9b42012}; !- HVAC Component

OS:PortList,
  {0447e4a3-9673-4053-aeb4-7ebc21203944}, !- Handle
  {c034e980-f8f6-48a6-93c4-ed7ba9b42012}; !- HVAC Component

OS:Sizing:Zone,
  {52476c19-ad7d-486a-8587-414d18483d9b}, !- Handle
  {c034e980-f8f6-48a6-93c4-ed7ba9b42012}, !- Zone or ZoneList Name
  SupplyAirTemperature,                   !- Zone Cooling Design Supply Air Temperature Input Method
  14,                                     !- Zone Cooling Design Supply Air Temperature {C}
  11.11,                                  !- Zone Cooling Design Supply Air Temperature Difference {deltaC}
  SupplyAirTemperature,                   !- Zone Heating Design Supply Air Temperature Input Method
  40,                                     !- Zone Heating Design Supply Air Temperature {C}
  11.11,                                  !- Zone Heating Design Supply Air Temperature Difference {deltaC}
  0.0085,                                 !- Zone Cooling Design Supply Air Humidity Ratio {kg-H2O/kg-air}
  0.008,                                  !- Zone Heating Design Supply Air Humidity Ratio {kg-H2O/kg-air}
  ,                                       !- Zone Heating Sizing Factor
  ,                                       !- Zone Cooling Sizing Factor
  DesignDay,                              !- Cooling Design Air Flow Method
  ,                                       !- Cooling Design Air Flow Rate {m3/s}
  ,                                       !- Cooling Minimum Air Flow per Zone Floor Area {m3/s-m2}
  ,                                       !- Cooling Minimum Air Flow {m3/s}
  ,                                       !- Cooling Minimum Air Flow Fraction
  DesignDay,                              !- Heating Design Air Flow Method
  ,                                       !- Heating Design Air Flow Rate {m3/s}
  ,                                       !- Heating Maximum Air Flow per Zone Floor Area {m3/s-m2}
  ,                                       !- Heating Maximum Air Flow {m3/s}
  ,                                       !- Heating Maximum Air Flow Fraction
  No,                                     !- Account for Dedicated Outdoor Air System
  NeutralSupplyAir,                       !- Dedicated Outdoor Air System Control Strategy
  autosize,                               !- Dedicated Outdoor Air Low Setpoint Temperature for Design {C}
  autosize,                               !- Dedicated Outdoor Air High Setpoint Temperature for Design {C}
  Sensible Load Only No Latent Load,      !- Zone Load Sizing Method
  HumidityRatioDifference,                !- Zone Latent Cooling Design Supply Air Humidity Ratio Input Method
  ,                                       !- Zone Dehumidification Design Supply Air Humidity Ratio {kgWater/kgDryAir}
  0.005,                                  !- Zone Cooling Design Supply Air Humidity Ratio Difference {kgWater/kgDryAir}
  HumidityRatioDifference,                !- Zone Latent Heating Design Supply Air Humidity Ratio Input Method
  ,                                       !- Zone Humidification Design Supply Air Humidity Ratio {kgWater/kgDryAir}
  0.005,                                  !- Zone Humidification Design Supply Air Humidity Ratio Difference {kgWater/kgDryAir}
  ,                                       !- Zone Humidistat Dehumidification Set Point Schedule Name
  ,                                       !- Zone Humidistat Humidification Set Point Schedule Name
  ,                                       !- Design Zone Air Distribution Effectiveness in Cooling Mode
  ,                                       !- Design Zone Air Distribution Effectiveness in Heating Mode
  ,                                       !- Design Zone Secondary Recirculation Fraction {dimensionless}
  ,                                       !- Design Minimum Zone Ventilation Efficiency {dimensionless}
  Coincident;                             !- Sizing Option

OS:ZoneHVAC:EquipmentList,
  {dcc749bb-5df5-44b7-b757-d41f8c8eee04}, !- Handle
  Zone HVAC Equipment List 2,             !- Name
  {c034e980-f8f6-48a6-93c4-ed7ba9b42012}; !- Thermal Zone

OS:AdditionalProperties,
  {758e1405-e8b0-4db9-9507-18e982a97ded}, !- Handle
  {c034e980-f8f6-48a6-93c4-ed7ba9b42012}, !- Object Name
  ObjectType,                             !- Feature Name 1
  String,                                 !- Feature Data Type 1
  attic - vented;                         !- Feature Value 1

OS:Space,
  {e1b8493d-c5da-4fe4-870d-03b7c7e792af}, !- Handle
  attic - vented 1,                       !- Name
  ,                                       !- Space Type Name
  ,                                       !- Default Construction Set Name
  ,                                       !- Default Schedule Set Name
  ,                                       !- Direction of Relative North {deg}
  ,                                       !- X Origin {m}
  ,                                       !- Y Origin {m}
  ,                                       !- Z Origin {m}
  ,                                       !- Building Story Name
  {c034e980-f8f6-48a6-93c4-ed7ba9b42012}, !- Thermal Zone Name
  ,                                       !- Part of Total Floor Area
  ,                                       !- Design Specification Outdoor Air Object Name
  ,                                       !- Building Unit Name
  356.390921899745;                       !- Volume {m3}

OS:Material,
  {4be7a2bb-bf74-4831-a5b0-2350e419d84c}, !- Handle
  asphalt or fiberglass shingles,         !- Name