
OS:Version,
  {f2522715-497c-4644-b8a2-cd0addc4d792}, !- Handle
  3.9.0;                                  !- Version Identifier

OS:SimulationControl,
  {5625dcf3-6012-4d8e-ae2c-dc78e3636d4e}, !- Handle
  ,                                       !- Do Zone Sizing Calculation
  ,                                       !- Do System Sizing Calculation
  ,                                       !- Do Plant Sizing Calculation
  No;                                     !- Run Simulation for Sizing Periods

OS:Timestep,
  {8e19e160-3657-4d51-ac45-7b022c9a906f}, !- Handle
  1;                                      !- Number of Timesteps per Hour

OS:ShadowCalculation,
  {c5f088a2-b28d-4509-8d83-9af89d8a6a81}, !- Handle
  PolygonClipping,                        !- Shading Calculation Method
  ,                                       !- Shading Calculation Update Frequency Method
  20,                                     !- Shading Calculation Update Frequency
  200,                                    !- Maximum Figures in Shadow Overlap Calculations
  ,                                       !- Polygon Clipping Algorithm
  512,                                    !- Pixel Counting Resolution
  ,                                       !- Sky Diffuse Modeling Algorithm
  No,                                     !- Output External Shading Calculation Results
  No,                                     !- Disable Self-Shading Within Shading Zone Groups
  No;                                     !- Disable Self-Shading From Shading Zone Groups to Other Zones

OS:SurfaceConvectionAlgorithm:Outside,
  {e3dd1af7-d1e0-4bbd-8858-39eeb8bcccff}, !- Handle
  DOE-2;                                  !- Algorithm

OS:SurfaceConvectionAlgorithm:Inside,
  {4e9bca0c-e04f-4093-b495-772998d197c4}, !- Handle
  TARP;                                   !- Algorithm

OS:ZoneCapacitanceMultiplier:ResearchSpecial,
  {473559d6-023c-4e2c-be65-adcd405d5509}, !- Handle
  7,                                      !- Temperature Capacity Multiplier
  15,                                     !- Humidity Capacity Multiplier
  ;                                       !- Carbon Dioxide Capacity Multiplier

OS:ConvergenceLimits,
  {fdf0ecbd-5606-4295-9dd7-1be0f9c69e5d}, !- Handle
  0;                                      !- Minimum System Timestep {minutes}

OS:RunPeriod,
  {7ef7191d-214d-4aaa-a937-284e860095b1}, !- Handle
  Run Period 1,                           !- Name
  1,                                      !- Begin Month
  1,                                      !- Begin Day of Month
  12,                                     !- End Month
  31,                                     !- End Day of Month
  ,                                       !- Use Weather File Holidays and Special Days
  ,                                       !- Use Weather File Daylight Saving Period
  ,                                       !- Apply Weekend Holiday Rule
  ,                                       !- Use Weather File Rain Indicators
  ,                                       !- Use Weather File Snow Indicators
  ;                                       !- Number of Times Runperiod to be Repeated

OS:PerformancePrecisionTradeoffs,
  {f902e36b-cc7b-49fb-92e1-0a55a720b0cb}, !- Handle
  ,                                       !- Use Coil Direct Solutions
  CarrollMRT;                             !- Zone Radiant Exchange Algorithm

OS:WeatherFile,
  {fed768ca-e7eb-4ba4-aac4-05cff982fce4}, !- Handle
  Buffalo Niagara Intl Ap,                !- City
  NY,                                     !- State Province Region
  USA,                                    !- Country
  TMY3,                                   !- Data Source
  725280,                                 !- WMO Number
  42.93,                                  !- Latitude {deg}
  -78.73,                                 !- Longitude {deg}
  -5,                                     !- Time Zone {hr}
  215,                                    !- Elevation {m}
  /Users/nmoore/github/urbanopt-example-geojson-project/example_project/weather/USA_NY_Buffalo-Greater.Buffalo.Intl.AP.725280_TMY3.epw, !- Url
  6B50E0FF,                               !- Checksum
  ,                                       !- Start Date Actual Year
  Sunday;                                 !- Start Day of Week

OS:YearDescription,
  {eb0a0c85-8710-4b16-ad87-1934380cbd2f}, !- Handle
  2007,                                   !- Calendar Year
  ,                                       !- Day of Week for Start Day
  ;                                       !- Is Leap Year

OS:Site,
  {d793da05-744e-41ab-bf1f-6ed22671fde0}, !- Handle
  Buffalo Niagara Intl Ap_NY,             !- Name
  42.93,                                  !- Latitude {deg}
  -78.73,                                 !- Longitude {deg}
  -5,                                     !- Time Zone {hr}
  215,                                    !- Elevation {m}
  Suburbs,                                !- Terrain
  Yes;                                    !- Keep Site Location Information

OS:RunPeriodControl:DaylightSavingTime,
  {c2105006-733d-41fe-aa65-ad41936f34bf}, !- Handle
  Mar 12,                                 !- Start Date
  Nov 5;                                  !- End Date

OS:Site:GroundTemperature:Shallow,
  {dbf8dede-b0dc-4ad3-ba08-84b294e667a9}, !- Handle
  4.30207395723828,                       !- January Surface Ground Temperature {C}
  2.29327249652502,                       !- February Surface Ground Temperature {C}
  2.13240047156047,                       !- March Surface Ground Temperature {C}
  3.08567940719286,                       !- April Surface Ground Temperature {C}
  6.91256312497526,                       !- May Surface Ground Temperature {C}
  10.7216195949507,                       !- June Surface Ground Temperature {C}
  14.0238679822574,                       !- July Surface Ground Temperature {C}
  16.1157611184724,                       !- August Surface Ground Temperature {C}
  16.2934789303462,                       !- September Surface Ground Temperature {C}
  14.5920754632847,                       !- October Surface Ground Temperature {C}
  11.374036348653,                        !- November Surface Ground Temperature {C}
  7.68182621661674;                       !- December Surface Ground Temperature {C}

OS:ThermalZone,
  {465f42e7-315f-4e89-bb62-ef4ee64b2c2c}, !- Handle
  conditioned space,                      !- Name
  1,                                      !- Multiplier
  ,                                       !- Ceiling Height {m}
  692.06373070848,                        !- Volume {m3}
  ,                                       !- Floor Area {m2}
  ,                                       !- Zone Inside Convection Algorithm
  ,                                       !- Zone Outside Convection Algorithm
  ,                                       !- Zone Conditioning Equipment List Name
  {3ded695b-e177-4ac9-a8cc-a04669b2c120}, !- Zone Air Inlet Port List
  {d4d352d4-0940-4251-9368-53907ee068a1}, !- Zone Air Exhaust Port List
  {6d22e546-21d7-418f-a16e-7d6336f67fb4}, !- Zone Air Node Name
  {b2bb8116-4e1a-48c1-9f7c-67955feaaa73}, !- Zone Return Air Port List
  ,                                       !- Primary Daylighting Control Name
  ,                                       !- Fraction of Zone Controlled by Primary Daylighting Control
  ,                                       !- Secondary Daylighting Control Name
  ,                                       !- Fraction of Zone Controlled by Secondary Daylighting Control
  ,                                       !- Illuminance Map Name
  ,                                       !- Group Rendering Name
  {ba22c63a-eb3a-4c45-b233-9d98ff3c4f7c}, !- Thermostat Name
  No;                                     !- Use Ideal Air Loads

OS:Node,
  {a04d6e52-b173-497b-99bc-36ff4b1f9396}, !- Handle
  Node 1,                                 !- Name
  {6d22e546-21d7-418f-a16e-7d6336f67fb4}, !- Inlet Port
  ;                                       !- Outlet Port

OS:Connection,
  {6d22e546-21d7-418f-a16e-7d6336f67fb4}, !- Handle
  {465f42e7-315f-4e89-bb62-ef4ee64b2c2c}, !- Source Object
  11,                                     !- Outlet Port
  {a04d6e52-b173-497b-99bc-36ff4b1f9396}, !- Target Object
  2;                                      !- Inlet Port

OS:PortList,
  {3ded695b-e177-4ac9-a8cc-a04669b2c120}, !- Handle
  {465f42e7-315f-4e89-bb62-ef4ee64b2c2c}, !- HVAC Component
  {b50e532b-e786-4106-80b2-337935e0f798}; !- Port 1

OS:PortList,
  {d4d352d4-0940-4251-9368-53907ee068a1}, !- Handle
  {465f42e7-315f-4e89-bb62-ef4ee64b2c2c}; !- HVAC Component

OS:PortList,
  {b2bb8116-4e1a-48c1-9f7c-67955feaaa73}, !- Handle
  {465f42e7-315f-4e89-bb62-ef4ee64b2c2c}, !- HVAC Component
  {9e567643-9f3b-4079-8c29-c07c1eb0c3ad}; !- Port 1

OS:Sizing:Zone,
  {eb4a1d5d-e9e6-4ce0-b081-6c32fa97786d}, !- Handle
  {465f42e7-315f-4e89-bb62-ef4ee64b2c2c}, !- Zone or ZoneList Name
  SupplyAirTemperature,                   !- Zone Cooling Design Supply Air Temperature Input Method
  14,                                     !- Zone Cooling Design Supply Air Temperature {C}
  11.11,                                  !- Zone Cooling Design Supply Air Temperature Difference {deltaC}
  SupplyAirTemperature,                   !- Zone Heating Design Supply Air Temperature Input Method
  40,                                     !- Zone Heating Design Supply Air Temperature {C}
  11.11,                                  !- Zone Heating Design Supply Air Temperature Difference {deltaC}
  0.0085,                                 !- Zone Cooling Design Supply Air Humidity Ratio {kg-H2O/kg-air}
  0.008,                                  !- Zone Heating Design Supply Air Humidity Ratio {kg-H2O/kg-air}
  ,                                       !- Zone Heating Sizing Factor
  ,                                       !- Zone Cooling Sizing Factor
  DesignDay,                              !- Cooling Design Air Flow Method
  ,                                       !- Cooling Design Air Flow Rate {m3/s}
  ,                                       !- Cooling Minimum Air Flow per Zone Floor Area {m3/s-m2}
  ,                                       !- Cooling Minimum Air Flow {m3/s}
  ,                                       !- Cooling Minimum Air Flow Fraction
  DesignDay,                              !- Heating Design Air Flow Method
  ,                                       !- Heating Design Air Flow Rate {m3/s}
  ,                                       !- Heating Maximum Air Flow per Zone Floor Area {m3/s-m2}
  ,                                       !- Heating Maximum Air Flow {m3/s}
  ,                                       !- Heating Maximum Air Flow Fraction
  No,                                     !- Account for Dedicated Outdoor Air System
  NeutralSupplyAir,                       !- Dedicated Outdoor Air System Control Strategy
  autosize,                               !- Dedicated Outdoor Air Low Setpoint Temperature for Design {C}
  autosize,                               !- Dedicated Outdoor Air High Setpoint Temperature for Design {C}
  Sensible Load Only No Latent Load,      !- Zone Load Sizing Method
  HumidityRatioDifference,                !- Zone Latent Cooling Design Supply Air Humidity Ratio Input Method
  ,                                       !- Zone Dehumidification Design Supply Air Humidity Ratio {kgWater/kgDryAir}
  0.005,                                  !- Zone Cooling Design Supply Air Humidity Ratio Difference {kgWater/kgDryAir}
  HumidityRatioDifference,                !- Zone Latent Heating Design Supply Air Humidity Ratio Input Method
  ,                                       !- Zone Humidification Design Supply Air Humidity Ratio {kgWater/kgDryAir}
  0.005,                                  !- Zone Humidification Design Supply Air Humidity Ratio Difference {kgWater/kgDryAir}
  ,                                       !- Zone Humidistat Dehumidification Set Point Schedule Name
  ,                                       !- Zone Humidistat Humidification Set Point Schedule Name
  ,                                       !- Design Zone Air Distribution Effectiveness in Cooling Mode
  ,                                       !- Design Zone Air Distribution Effectiveness in Heating Mode
  ,                                       !- Design Zone Secondary Recirculation Fraction {dimensionless}
  ,                                       !- Design Minimum Zone Ventilation Efficiency {dimensionless}
  Coincident;                             !- Sizing Option

OS:ZoneHVAC:EquipmentList,
  {8a5672e9-88f7-4b0d-b877-e6669b36cc45}, !- Handle
  Zone HVAC Equipment List 1,             !- Name
  {465f42e7-315f-4e89-bb62-ef4ee64b2c2c}, !- Thermal Zone
  ,                                       !- Load Distribution Scheme
  {03f74dca-3283-405c-9e3e-c868fcdd9466}, !- Zone Equipment 1
  1,                                      !- Zone Equipment Cooling Sequence 1
  1,                                      !- Zone Equipment Heating or No-Load Sequence 1
  {9a764cc3-8cb2-4b3d-aee3-5d21b98524e8}, !- Zone Equipment Sequential Cooling Fraction Schedule Name 1
  {0daf9804-2d1f-418c-9b3d-cea8eded873e}, !- Zone Equipment Sequential Heating Fraction Schedule Name 1
  {942b67f9-5a4c-45e3-bd11-1a99cfb85814}, !- Zone Equipment 2
  2,                                      !- Zone Equipment Cooling Sequence 2
  2,                                      !- Zone Equipment Heating or No-Load Sequence 2
  {c612c44c-62e5-4808-bbce-886536bb56ac}, !- Zone Equipment Sequential Cooling Fraction Schedule Name 2
  {dcbbd632-6d0b-4528-b7a8-a5f19fd0b564}; !- Zone Equipment Sequential Heating Fraction Schedule Name 2

OS:AdditionalProperties,
  {78b4bb0d-23a6-405f-a12f-e0a00beb446d}, !- Handle
  {465f42e7-315f-4e89-bb62-ef4ee64b2c2c}, !- Object Name
  ObjectType,                             !- Feature Name 1
  String,                                 !- Feature Data Type 1
  conditioned space;                      !- Feature Value 1

OS:Space,
  {55d6f72c-cd4d-4af8-aed2-26909f080432}, !- Handle
  conditioned space 1,                    !- Name
  ,                                       !- Space Type Name
  ,                                       !- Default Construction Set Name
  ,                                       !- Default Schedule Set Name
  ,                                       !- Direction of Relative North {deg}
  ,                                       !- X Origin {m}
  ,                                       !- Y Origin {m}
  ,                                       !- Z Origin {m}
  ,                                       !- Building Story Name
  {465f42e7-315f-4e89-bb62-ef4ee64b2c2c}, !- Thermal Zone Name
  ,                                       !- Part of Total Floor Area
  ,                                       !- Design Specification Outdoor Air Object Name
  ,                                       !- Building Unit Name
  692.06373070848;                        !- Volume {m3}

OS:Schedule:Ruleset,
  {25cc7d15-0bd0-4b38-913a-a94af17ba656}, !- Handle
  heating setpoint,                       !- Name
  {7c7909a4-a2e6-40e1-9c3b-696f8061418e}, !- Schedule Type Limits Name
  {72f0b255-f1bf-4da8-a3a6-9b0891b126c1}; !- Default Day Schedule Name

OS:Schedule:Day,
  {72f0b255-f1bf-4da8-a3a6-9b0891b126c1}, !- Handle
  heating setpoint default day,           !- Name
  {7c7909a4-a2e6-40e1-9c3b-696f8061418e}, !- Schedule Type Limits Name
  ,                                       !- Interpolate to Timestep
  24,                                     !- Hour 1
  0,                                      !- Minute 1
  0;                                      !- Value Until Time 1

OS:Schedule:Rule,
  {323c8345-9216-4011-8207-e26cd80dc9df}, !- Handle
  heating setpoint allday rule,           !- Name
  {25cc7d15-0bd0-4b38-913a-a94af17ba656}, !- Schedule Ruleset Name
  0,                                      !- Rule Order
  {6b18c874-799e-48d5-954e-7cc77660e718}, !- Day Schedule Name
  Yes,                                    !- Apply Sunday
  Yes,                                    !- Apply Monday
  Yes,                                    !- Apply Tuesday
  Yes,                                    !- Apply Wednesday
  Yes,                                    !- Apply Thursday
  Yes,                                    !- Apply Friday
  Yes,                                    !- Apply Saturday
  DateRange,                              !- Date Specification Type
  1,                                      !- Start Month
  1,                                      !- Start Day
  12,                                     !- End Month
  31;                                     !- End Day

OS:Schedule:Day,
  {6b18c874-799e-48d5-954e-7cc77660e718}, !- Handle
  heating setpoint day,                   !- Name
  {7c7909a4-a2e6-40e1-9c3b-696f8061418e}, !- Schedule Type Limits Name
  ,                                       !- Interpolate to Timestep
  24,                                     !- Hour 1
  0,                                      !- Minute 1
  20;                                     !- Value Until Time 1

OS:Schedule:Ruleset,
  {23164afa-8655-4bf1-963a-864b5c2af978}, !- Handle
  cooling setpoint,                       !- Name
  {7c7909a4-a2e6-40e1-9c3b-696f8061418e}, !- Schedule Type Limits Name
  {7399f582-b465-452f-a425-14789eed4621}; !- Default Day Schedule Name

OS:Schedule:Day,
  {7399f582-b465-452f-a425-14789eed4621}, !- Handle
  cooling setpoint default day,           !- Name
  {7c7909a4-a2e6-40e1-9c3b-696f8061418e}, !- Schedule Type Limits Name
  ,                                       !- Interpolate to Timestep
  24,                                     !- Hour 1
  0,                                      !- Minute 1
  0;                                      !- Value Until Time 1

OS:Schedule:Rule,
  {819f6c3b-e613-4fda-b487-12b27409ace0}, !- Handle
  cooling setpoint allday rule,           !- Name
  {23164afa-8655-4bf1-963a-864b5c2af978}, !- Schedule Ruleset Name
  0,                                      !- Rule Order
  {2668e787-26a6-4db9-8227-3f84498e05c2}, !- Day Schedule Name
  Yes,                                    !- Apply Sunday
  Yes,                                    !- Apply Monday
  Yes,                                    !- Apply Tuesday
  Yes,                                    !- Apply Wednesday
  Yes,                                    !- Apply Thursday
  Yes,                                    !- Apply Friday
  Yes,                                    !- Apply Saturday
  DateRange,                              !- Date Specification Type
  1,                                      !- Start Month
  1,                                      !- Start Day
  12,                                     !- End Month
  31;                                     !- End Day

OS:Schedule:Day,
  {2668e787-26a6-4db9-8227-3f84498e05c2}, !- Handle
  cooling setpoint day,                   !- Name
  {7c7909a4-a2e6-40e1-9c3b-696f8061418e}, !- Schedule Type Limits Name
  ,                                       !- Interpolate to Timestep
  24,                                     !- Hour 1
  0,                                      !- Minute 1
  25.5555555555556;                       !- Value Until Time 1

OS:ThermostatSetpoint:DualSetpoint,
  {ba22c63a-eb3a-4c45-b233-9d98ff3c4f7c}, !- Handle
  conditioned space temperature setpoint, !- Name
  {25cc7d15-0bd0-4b38-913a-a94af17ba656}, !- Heating Setpoint Temperature Schedule Name
  {23164afa-8655-4bf1-963a-864b5c2af978}, !- Cooling Setpoint Temperature Schedule Name
  0;                                      !- Temperature Difference Between Cutout And Setpoint {deltaC}

OS:ScheduleTypeLimits,
  {7c7909a4-a2e6-40e1-9c3b-696f8061418e}, !- Handle
  Temperature,                            !- Name
  ,                                       !- Lower Limit Value
  ,                                       !- Upper Limit Value
  Continuous,                             !- Numeric Type
  Temperature;                            !- Unit Type

OS:Surface,
  {107cd00a-396a-48ba-938e-ee7321929b67}, !- Handle
  Roof1,                                  !- Name
  RoofCeiling,                            !- Surface Type
  {97d19407-3a30-4768-ac91-594692670f1a}, !- Construction Name
  {8c4ab35e-923f-4cf1-8563-56dea49f1f96}, !- Space Name
  Outdoors,                               !- Outside Boundary Condition
  ,                                       !- Outside Boundary Condition Object
  SunExposed,                             !- Sun Exposure
  WindExposed,                            !- Wind Exposure
  ,                                       !- View Factor to Ground
  ,                                       !- Number of Vertices
  -26.9347048849634, 58.0557891618865, 2.4384, !- X,Y,Z Vertex 1 {m}
  -26.9347048849634, 46.7895631136661, 8.0715130241102, !- X,Y,Z Vertex 2 {m}
  -14.3386812381136, 46.7895631136661, 8.0715130241102, !- X,Y,Z Vertex 3 {m}
  -14.3386812381136, 58.0557891618865, 2.4384; !- X,Y,Z Vertex 4 {m}

OS:AdditionalProperties,
  {32b19b6c-829f-4604-9a6c-9575e13366b7}, !- Handle
  {107cd00a-396a-48ba-938e-ee7321929b67}, !- Object Name
  Length,                                 !- Feature Name 1
  Double,                                 !- Feature Data Type 1
  41.325536899113608,                     !- Feature Value 1
  Width,                                  !- Feature Name 2
  Double,                                 !- Feature Data Type 2
  41.325536899113601,                     !- Feature Value 2
  Azimuth,                                !- Feature Name 3
  Integer,                                !- Feature Data Type 3
  0,                                      !- Feature Value 3
  Tilt,                                   !- Feature Name 4
  Double,                                 !- Feature Data Type 4
  0.5,                                    !- Feature Value 4
  SurfaceType,                            !- Feature Name 5
  String,                                 !- Feature Data Type 5
  Roof;                                   !- Feature Value 5

OS:ThermalZone,
  {6aa6b91c-8052-4fe9-b93c-dbf7e0decb6d}, !- Handle
  attic - vented,                         !- Name
  1,                                      !- Multiplier
  ,                                       !- Ceiling Height {m}
  356.389957095237,                       !- Volume {m3}
  ,                                       !- Floor Area {m2}
  ,                                       !- Zone Inside Convection Algorithm
  ,                                       !- Zone Outside Convection Algorithm
  ,                                       !- Zone Conditioning Equipment List Name
  {4e863233-ea86-4a2a-a06b-6651617df43c}, !- Zone Air Inlet Port List
  {eb382a76-e9f2-4f70-bfce-06fcd3328286}, !- Zone Air Exhaust Port List
  {11255c00-d34a-4d38-bfe2-d8f3a395d685}, !- Zone Air Node Name
  {a2d734e0-1de6-4406-9c0d-1e66d8a9420b}, !- Zone Return Air Port List
  ,                                       !- Primary Daylighting Control Name
  ,                                       !- Fraction of Zone Controlled by Primary Daylighting Control
  ,                                       !- Secondary Daylighting Control Name
  ,                                       !- Fraction of Zone Controlled by Secondary Daylighting Control
  ,                                       !- Illuminance Map Name
  ,                                       !- Group Rendering Name
  ,                                       !- Thermostat Name
  No;                                     !- Use Ideal Air Loads

OS:Node,
  {d67f6564-b156-4e9c-a739-40b5beb954fe}, !- Handle
  Node 2,                                 !- Name
  {11255c00-d34a-4d38-bfe2-d8f3a395d685}, !- Inlet Port
  ;                                       !- Outlet Port

OS:Connection,
  {11255c00-d34a-4d38-bfe2-d8f3a395d685}, !- Handle
  {6aa6b91c-8052-4fe9-b93c-dbf7e0decb6d}, !- Source Object
  11,                                     !- Outlet Port
  {d67f6564-b156-4e9c-a739-40b5beb954fe}, !- Target Object
  2;                                      !- Inlet Port

OS:PortList,
  {4e863233-ea86-4a2a-a06b-6651617df43c}, !- Handle
  {6aa6b91c-8052-4fe9-b93c-dbf7e0decb6d}; !- HVAC Component

OS:PortList,
  {eb382a76-e9f2-4f70-bfce-06fcd3328286}, !- Handle
  {6aa6b91c-8052-4fe9-b93c-dbf7e0decb6d}; !- HVAC Component

OS:PortList,
  {a2d734e0-1de6-4406-9c0d-1e66d8a9420b}, !- Handle
  {6aa6b91c-8052-4fe9-b93c-dbf7e0decb6d}; !- HVAC Component

OS:Sizing:Zone,
  {5848851a-efc6-42c9-93b8-68e81d0780a8}, !- Handle
  {6aa6b91c-8052-4fe9-b93c-dbf7e0decb6d}, !- Zone or ZoneList Name
  SupplyAirTemperature,                   !- Zone Cooling Design Supply Air Temperature Input Method
  14,                                     !- Zone Cooling Design Supply Air Temperature {C}
  11.11,                                  !- Zone Cooling Design Supply Air Temperature Difference {deltaC}
  SupplyAirTemperature,                   !- Zone Heating Design Supply Air Temperature Input Method
  40,                                     !- Zone Heating Design Supply Air Temperature {C}
  11.11,                                  !- Zone Heating Design Supply Air Temperature Difference {deltaC}
  0.0085,                                 !- Zone Cooling Design Supply Air Humidity Ratio {kg-H2O/kg-air}
  0.008,                                  !- Zone Heating Design Supply Air Humidity Ratio {kg-H2O/kg-air}
  ,                                       !- Zone Heating Sizing Factor
  ,                                       !- Zone Cooling Sizing Factor
  DesignDay,                              !- Cooling Design Air Flow Method
  ,                                       !- Cooling Design Air Flow Rate {m3/s}
  ,                                       !- Cooling Minimum Air Flow per Zone Floor Area {m3/s-m2}
  ,                                       !- Cooling Minimum Air Flow {m3/s}
  ,                                       !- Cooling Minimum Air Flow Fraction
  DesignDay,                              !- Heating Design Air Flow Method
  ,                                       !- Heating Design Air Flow Rate {m3/s}
  ,                                       !- Heating Maximum Air Flow per Zone Floor Area {m3/s-m2}
  ,                                       !- Heating Maximum Air Flow {m3/s}
  ,                                       !- Heating Maximum Air Flow Fraction
  No,                                     !- Account for Dedicated Outdoor Air System
  NeutralSupplyAir,                       !- Dedicated Outdoor Air System Control Strategy
  autosize,                               !- Dedicated Outdoor Air Low Setpoint Temperature for Design {C}
  autosize,                               !- Dedicated Outdoor Air High Setpoint Temperature for Design {C}
  Sensible Load Only No Latent Load,      !- Zone Load Sizing Method
  HumidityRatioDifference,                !- Zone Latent Cooling Design Supply Air Humidity Ratio Input Method
  ,                                       !- Zone Dehumidification Design Supply Air Humidity Ratio {kgWater/kgDryAir}
  0.005,                                  !- Zone Cooling Design Supply Air Humidity Ratio Difference {kgWater/kgDryAir}
  HumidityRatioDifference,                !- Zone Latent Heating Design Supply Air Humidity Ratio Input Method
  ,                                       !- Zone Humidification Design Supply Air Humidity Ratio {kgWater/kgDryAir}
  0.005,                                  !- Zone Humidification Design Supply Air Humidity Ratio Difference {kgWater/kgDryAir}
  ,                                       !- Zone Humidistat Dehumidification Set Point Schedule Name
  ,                                       !- Zone Humidistat Humidification Set Point Schedule Name
  ,                                       !- Design Zone Air Distribution Effectiveness in Cooling Mode
  ,                                       !- Design Zone Air Distribution Effectiveness in Heating Mode
  ,                                       !- Design Zone Secondary Recirculation Fraction {dimensionless}
  ,                                       !- Design Minimum Zone Ventilation Efficiency {dimensionless}
  Coincident;                             !- Sizing Option

OS:ZoneHVAC:EquipmentList,
  {bb16acdc-bd5d-4b3f-9582-f51a6c40f977}, !- Handle
  Zone HVAC Equipment List 2,             !- Name
  {6aa6b91c-8052-4fe9-b93c-dbf7e0decb6d}; !- Thermal Zone

OS:AdditionalProperties,
  {8104b1d3-b21a-4d2b-b40c-cb7e12948177}, !- Handle
  {6aa6b91c-8052-4fe9-b93c-dbf7e0decb6d}, !- Object Name
  ObjectType,                             !- Feature Name 1
  String,                                 !- Feature Data Type 1
  attic - vented;                         !- Feature Value 1

OS:Space,
  {8c4ab35e-923f-4cf1-8563-56dea49f1f96}, !- Handle
  attic - vented 1,                       !- Name
  ,                                       !- Space Type Name
  ,                                       !- Default Construction Set Name
  ,                                       !- Default Schedule Set Name
  ,                                       !- Direction of Relative North {deg}
  ,                                       !- X Origin {m}
  ,                                       !- Y Origin {m}
  ,                                       !- Z Origin {m}
  ,                                       !- Building Story Name
  {6aa6b91c-8052-4fe9-b93c-dbf7e0decb6d}, !- Thermal Zone Name
  ,                                       !- Part of Total Floor Area
  ,                                       !- Design Specification Outdoor Air Object Name
  ,                                       !- Building Unit Name
  356.389957095237;                       !- Volume {m3}

OS:Material,
  {de807cc3-3fd4-4349-a823-b6e7b2d7f38d}, !- Handle
  asphalt or fiberglass shingles,         !- Name