
OS:Version,
  {ec03389a-531d-49d0-ba02-3ff9f0a823de}, !- Handle
  3.10.0;                                 !- Version Identifier

OS:SimulationControl,
  {159709e3-1571-4ad7-93ee-8b7a0445645b}, !- Handle
  ,                                       !- Do Zone Sizing Calculation
  ,                                       !- Do System Sizing Calculation
  ,                                       !- Do Plant Sizing Calculation
  No;                                     !- Run Simulation for Sizing Periods

OS:Timestep,
  {0bd58fcc-08e0-44ea-92f0-7cf4bb59e8a8}, !- Handle
  1;                                      !- Number of Timesteps per Hour

OS:ShadowCalculation,
  {94076a10-62d0-4671-a213-8373c4a4611e}, !- Handle
  PolygonClipping,                        !- Shading Calculation Method
  ,                                       !- Shading Calculation Update Frequency Method
  20,                                     !- Shading Calculation Update Frequency
  200,                                    !- Maximum Figures in Shadow Overlap Calculations
  ,                                       !- Polygon Clipping Algorithm
  512,                                    !- Pixel Counting Resolution
  ,                                       !- Sky Diffuse Modeling Algorithm
  No,                                     !- Output External Shading Calculation Results
  No,                                     !- Disable Self-Shading Within Shading Zone Groups
  No;                                     !- Disable Self-Shading From Shading Zone Groups to Other Zones

OS:SurfaceConvectionAlgorithm:Outside,
  {b9cb9e0f-d15b-435e-8f42-bb94e099c8ad}, !- Handle
  DOE-2;                                  !- Algorithm

OS:SurfaceConvectionAlgorithm:Inside,
  {ec70c7cd-3ca3-496f-84e1-8271f0c708f6}, !- Handle
  TARP;                                   !- Algorithm

OS:ZoneCapacitanceMultiplier:ResearchSpecial,
  {5e834992-e850-4afe-a3b3-7b46eba974cd}, !- Handle
  7,                                      !- Temperature Capacity Multiplier
  15,                                     !- Humidity Capacity Multiplier
  ;                                       !- Carbon Dioxide Capacity Multiplier

OS:ConvergenceLimits,
  {286f27a0-521a-425d-b48c-151dcbff2874}, !- Handle
  0;                                      !- Minimum System Timestep {minutes}

OS:RunPeriod,
  {1cac3a39-1191-4df7-ad23-87c2e6c8e23d}, !- Handle
  Run Period 1,                           !- Name
  1,                                      !- Begin Month
  1,                                      !- Begin Day of Month
  12,                                     !- End Month
  31,                                     !- End Day of Month
  ,                                       !- Use Weather File Holidays and Special Days
  ,                                       !- Use Weather File Daylight Saving Period
  ,                                       !- Apply Weekend Holiday Rule
  ,                                       !- Use Weather File Rain Indicators
  ,                                       !- Use Weather File Snow Indicators
  ;                                       !- Number of Times Runperiod to be Repeated

OS:PerformancePrecisionTradeoffs,
  {2469d352-9598-417d-92a0-8be9f23df16a}, !- Handle
  ,                                       !- Use Coil Direct Solutions
  CarrollMRT;                             !- Zone Radiant Exchange Algorithm

OS:WeatherFile,
  {e28c676b-fa6e-4f09-8aad-2b9f9fc46b57}, !- Handle
  Buffalo Niagara Intl Ap,                !- City
  NY,                                     !- State Province Region
  USA,                                    !- Country
  TMY3,                                   !- Data Source
  725280,                                 !- WMO Number
  42.93,                                  !- Latitude {deg}
  -78.73,                                 !- Longitude {deg}
  -5,                                     !- Time Zone {hr}
  215,                                    !- Elevation {m}
  /Users/nmoore/github/urbanopt-example-geojson-project/example_project/weather/USA_NY_Buffalo-Greater.Buffalo.Intl.AP.725280_TMY3.epw, !- Url
  6B50E0FF,                               !- Checksum
  ,                                       !- Start Date Actual Year
  Sunday;                                 !- Start Day of Week

OS:YearDescription,
  {c23c15ce-dd9f-400f-aca5-6e17ab0df7b8}, !- Handle
  2007,                                   !- Calendar Year
  ,                                       !- Day of Week for Start Day
  ;                                       !- Is Leap Year

OS:Site,
  {46c83653-9432-4c4f-bbf7-9083aa0a7ef9}, !- Handle
  Buffalo Niagara Intl Ap_NY,             !- Name
  42.93,                                  !- Latitude {deg}
  -78.73,                                 !- Longitude {deg}
  -5,                                     !- Time Zone {hr}
  215,                                    !- Elevation {m}
  Suburbs,                                !- Terrain
  Yes;                                    !- Keep Site Location Information

OS:RunPeriodControl:DaylightSavingTime,
  {490d0f3e-1ebb-4109-a9b1-c5081a9e84ef}, !- Handle
  Mar 12,                                 !- Start Date
  Nov 5;                                  !- End Date

OS:Site:GroundTemperature:Shallow,
  {4ab4c161-e31e-4a73-8319-c01d3a47dada}, !- Handle
  4.30207395723828,                       !- January Surface Ground Temperature {C}
  2.29327249652502,                       !- February Surface Ground Temperature {C}
  2.13240047156047,                       !- March Surface Ground Temperature {C}
  3.08567940719286,                       !- April Surface Ground Temperature {C}
  6.91256312497526,                       !- May Surface Ground Temperature {C}
  10.7216195949507,                       !- June Surface Ground Temperature {C}
  14.0238679822574,                       !- July Surface Ground Temperature {C}
  16.1157611184724,                       !- August Surface Ground Temperature {C}
  16.2934789303462,                       !- September Surface Ground Temperature {C}
  14.5920754632847,                       !- October Surface Ground Temperature {C}
  11.374036348653,                        !- November Surface Ground Temperature {C}
  7.68182621661674;                       !- December Surface Ground Temperature {C}

OS:ThermalZone,
  {da60182d-780e-4c00-bb26-b957f2801b48}, !- Handle
  conditioned space,                      !- Name
  1,                                      !- Multiplier
  ,                                       !- Ceiling Height {m}
  951.587629724161,                       !- Volume {m3}
  ,                                       !- Floor Area {m2}
  ,                                       !- Zone Inside Convection Algorithm
  ,                                       !- Zone Outside Convection Algorithm
  ,                                       !- Zone Conditioning Equipment List Name
  {2d13bbf4-d6c6-44cb-937c-26930025ff60}, !- Zone Air Inlet Port List
  {78eaa394-b327-4edb-bf09-492699578445}, !- Zone Air Exhaust Port List
  {dd655ced-0af5-4d24-8ded-6d7ae48cfce4}, !- Zone Air Node Name
  {79b58981-0bcb-4818-99b7-dabf3c23204d}, !- Zone Return Air Port List
  ,                                       !- Primary Daylighting Control Name
  ,                                       !- Fraction of Zone Controlled by Primary Daylighting Control
  ,                                       !- Secondary Daylighting Control Name
  ,                                       !- Fraction of Zone Controlled by Secondary Daylighting Control
  ,                                       !- Illuminance Map Name
  ,                                       !- Group Rendering Name
  {61bce7e6-48aa-4b4b-99f6-75748bbe26c0}, !- Thermostat Name
  No;                                     !- Use Ideal Air Loads

OS:Node,
  {5a27ca29-14b1-4a5c-a45e-e16b72b5fac5}, !- Handle
  Node 1,                                 !- Name
  {dd655ced-0af5-4d24-8ded-6d7ae48cfce4}, !- Inlet Port
  ;                                       !- Outlet Port

OS:Connection,
  {dd655ced-0af5-4d24-8ded-6d7ae48cfce4}, !- Handle
  {da60182d-780e-4c00-bb26-b957f2801b48}, !- Source Object
  11,                                     !- Outlet Port
  {5a27ca29-14b1-4a5c-a45e-e16b72b5fac5}, !- Target Object
  2;                                      !- Inlet Port

OS:PortList,
  {2d13bbf4-d6c6-44cb-937c-26930025ff60}, !- Handle
  {da60182d-780e-4c00-bb26-b957f2801b48}, !- HVAC Component
  {7ea45a12-f4f7-4464-9ead-94c670e90fdc}; !- Port 1

OS:PortList,
  {78eaa394-b327-4edb-bf09-492699578445}, !- Handle
  {da60182d-780e-4c00-bb26-b957f2801b48}; !- HVAC Component

OS:PortList,
  {79b58981-0bcb-4818-99b7-dabf3c23204d}, !- Handle
  {da60182d-780e-4c00-bb26-b957f2801b48}, !- HVAC Component
  {86c479ae-c4b1-498d-bf5a-3c8a329536dc}; !- Port 1

OS:Sizing:Zone,
  {7eb18d3b-e7e0-4acf-b4f4-8c134c9f9532}, !- Handle
  {da60182d-780e-4c00-bb26-b957f2801b48}, !- Zone or ZoneList Name
  SupplyAirTemperature,                   !- Zone Cooling Design Supply Air Temperature Input Method
  14,                                     !- Zone Cooling Design Supply Air Temperature {C}
  11.11,                                  !- Zone Cooling Design Supply Air Temperature Difference {deltaC}
  SupplyAirTemperature,                   !- Zone Heating Design Supply Air Temperature Input Method
  40,                                     !- Zone Heating Design Supply Air Temperature {C}
  11.11,                                  !- Zone Heating Design Supply Air Temperature Difference {deltaC}
  0.0085,                                 !- Zone Cooling Design Supply Air Humidity Ratio {kg-H2O/kg-air}
  0.008,                                  !- Zone Heating Design Supply Air Humidity Ratio {kg-H2O/kg-air}
  ,                                       !- Zone Heating Sizing Factor
  ,                                       !- Zone Cooling Sizing Factor
  DesignDay,                              !- Cooling Design Air Flow Method
  ,                                       !- Cooling Design Air Flow Rate {m3/s}
  ,                                       !- Cooling Minimum Air Flow per Zone Floor Area {m3/s-m2}
  ,                                       !- Cooling Minimum Air Flow {m3/s}
  ,                                       !- Cooling Minimum Air Flow Fraction
  DesignDay,                              !- Heating Design Air Flow Method
  ,                                       !- Heating Design Air Flow Rate {m3/s}
  ,                                       !- Heating Maximum Air Flow per Zone Floor Area {m3/s-m2}
  ,                                       !- Heating Maximum Air Flow {m3/s}
  ,                                       !- Heating Maximum Air Flow Fraction
  No,                                     !- Account for Dedicated Outdoor Air System
  NeutralSupplyAir,                       !- Dedicated Outdoor Air System Control Strategy
  autosize,                               !- Dedicated Outdoor Air Low Setpoint Temperature for Design {C}
  autosize,                               !- Dedicated Outdoor Air High Setpoint Temperature for Design {C}
  Sensible Load Only No Latent Load,      !- Zone Load Sizing Method
  HumidityRatioDifference,                !- Zone Latent Cooling Design Supply Air Humidity Ratio Input Method
  ,                                       !- Zone Dehumidification Design Supply Air Humidity Ratio {kgWater/kgDryAir}
  0.005,                                  !- Zone Cooling Design Supply Air Humidity Ratio Difference {kgWater/kgDryAir}
  HumidityRatioDifference,                !- Zone Latent Heating Design Supply Air Humidity Ratio Input Method
  ,                                       !- Zone Humidification Design Supply Air Humidity Ratio {kgWater/kgDryAir}
  0.005,                                  !- Zone Humidification Design Supply Air Humidity Ratio Difference {kgWater/kgDryAir}
  ,                                       !- Zone Humidistat Dehumidification Set Point Schedule Name
  ,                                       !- Zone Humidistat Humidification Set Point Schedule Name
  ,                                       !- Design Zone Air Distribution Effectiveness in Cooling Mode
  ,                                       !- Design Zone Air Distribution Effectiveness in Heating Mode
  ,                                       !- Design Zone Secondary Recirculation Fraction {dimensionless}
  ,                                       !- Design Minimum Zone Ventilation Efficiency {dimensionless}
  Coincident;                             !- Sizing Option

OS:ZoneHVAC:EquipmentList,
  {3534626e-55e9-4a9e-87d1-54f40f237b40}, !- Handle
  Zone HVAC Equipment List 1,             !- Name
  {da60182d-780e-4c00-bb26-b957f2801b48}, !- Thermal Zone
  ,                                       !- Load Distribution Scheme
  {91f18719-65f8-46af-b984-6dac190123ea}, !- Zone Equipment 1
  1,                                      !- Zone Equipment Cooling Sequence 1
  1,                                      !- Zone Equipment Heating or No-Load Sequence 1
  {57010e5f-7e35-436d-9a9b-845cd7e945c6}, !- Zone Equipment Sequential Cooling Fraction Schedule Name 1
  {aaf61d5f-d4e4-48e0-9455-cdec14d6cb59}; !- Zone Equipment Sequential Heating Fraction Schedule Name 1

OS:AdditionalProperties,
  {b21df71d-40d1-4333-a409-0088a0fc722c}, !- Handle
  {da60182d-780e-4c00-bb26-b957f2801b48}, !- Object Name
  ObjectType,                             !- Feature Name 1
  String,                                 !- Feature Data Type 1
  conditioned space;                      !- Feature Value 1

OS:Space,
  {d191a1e5-5944-4bf1-8964-99a6606131d0}, !- Handle
  conditioned space 1,                    !- Name
  ,                                       !- Space Type Name
  ,                                       !- Default Construction Set Name
  ,                                       !- Default Schedule Set Name
  ,                                       !- Direction of Relative North {deg}
  ,                                       !- X Origin {m}
  ,                                       !- Y Origin {m}
  ,                                       !- Z Origin {m}
  ,                                       !- Building Story Name
  {da60182d-780e-4c00-bb26-b957f2801b48}, !- Thermal Zone Name
  ,                                       !- Part of Total Floor Area
  ,                                       !- Design Specification Outdoor Air Object Name
  ,                                       !- Building Unit Name
  951.587629724161;                       !- Volume {m3}

OS:Schedule:Ruleset,
  {d4499654-e348-4e2c-8125-ed56e6d0a4e8}, !- Handle
  heating setpoint,                       !- Name
  {de9091f2-1b37-4d67-9aa7-7998b9d454f5}, !- Schedule Type Limits Name
  {2fd411c2-4e78-43b5-9b06-8ba543636f7d}; !- Default Day Schedule Name

OS:Schedule:Day,
  {2fd411c2-4e78-43b5-9b06-8ba543636f7d}, !- Handle
  heating setpoint default day,           !- Name
  {de9091f2-1b37-4d67-9aa7-7998b9d454f5}, !- Schedule Type Limits Name
  ,                                       !- Interpolate to Timestep
  24,                                     !- Hour 1
  0,                                      !- Minute 1
  0;                                      !- Value Until Time 1

OS:Schedule:Rule,
  {c8ff4447-c245-4b70-b336-654bbf09067c}, !- Handle
  heating setpoint allday rule,           !- Name
  {d4499654-e348-4e2c-8125-ed56e6d0a4e8}, !- Schedule Ruleset Name
  0,                                      !- Rule Order
  {8d0baa7d-f6f7-4546-9f55-95a155e9cfc9}, !- Day Schedule Name
  Yes,                                    !- Apply Sunday
  Yes,                                    !- Apply Monday
  Yes,                                    !- Apply Tuesday
  Yes,                                    !- Apply Wednesday
  Yes,                                    !- Apply Thursday
  Yes,                                    !- Apply Friday
  Yes,                                    !- Apply Saturday
  DateRange,                              !- Date Specification Type
  1,                                      !- Start Month
  1,                                      !- Start Day
  12,                                     !- End Month
  31;                                     !- End Day

OS:Schedule:Day,
  {8d0baa7d-f6f7-4546-9f55-95a155e9cfc9}, !- Handle
  heating setpoint day,                   !- Name
  {de9091f2-1b37-4d67-9aa7-7998b9d454f5}, !- Schedule Type Limits Name
  ,                                       !- Interpolate to Timestep
  24,                                     !- Hour 1
  0,                                      !- Minute 1
  20;                                     !- Value Until Time 1

OS:Schedule:Ruleset,
  {10d0e2ba-d83f-4e07-974e-b506f4f41059}, !- Handle
  cooling setpoint,                       !- Name
  {de9091f2-1b37-4d67-9aa7-7998b9d454f5}, !- Schedule Type Limits Name
  {18a3bb6d-93d9-44d1-93b4-adf0acfa2871}; !- Default Day Schedule Name

OS:Schedule:Day,
  {18a3bb6d-93d9-44d1-93b4-adf0acfa2871}, !- Handle
  cooling setpoint default day,           !- Name
  {de9091f2-1b37-4d67-9aa7-7998b9d454f5}, !- Schedule Type Limits Name
  ,                                       !- Interpolate to Timestep
  24,                                     !- Hour 1
  0,                                      !- Minute 1
  0;                                      !- Value Until Time 1

OS:Schedule:Rule,
  {c7da6f1d-34a6-407c-ba18-a1229ef6ae89}, !- Handle
  cooling setpoint allday rule,           !- Name
  {10d0e2ba-d83f-4e07-974e-b506f4f41059}, !- Schedule Ruleset Name
  0,                                      !- Rule Order
  {53be29d1-d28a-47d1-940a-7f750449c316}, !- Day Schedule Name
  Yes,                                    !- Apply Sunday
  Yes,                                    !- Apply Monday
  Yes,                                    !- Apply Tuesday
  Yes,                                    !- Apply Wednesday
  Yes,                                    !- Apply Thursday
  Yes,                                    !- Apply Friday
  Yes,                                    !- Apply Saturday
  DateRange,                              !- Date Specification Type
  1,                                      !- Start Month
  1,                                      !- Start Day
  12,                                     !- End Month
  31;                                     !- End Day

OS:Schedule:Day,
  {53be29d1-d28a-47d1-940a-7f750449c316}, !- Handle
  cooling setpoint day,                   !- Name
  {de9091f2-1b37-4d67-9aa7-7998b9d454f5}, !- Schedule Type Limits Name
  ,                                       !- Interpolate to Timestep
  24,                                     !- Hour 1
  0,                                      !- Minute 1
  25.5555555555556;                       !- Value Until Time 1

OS:ThermostatSetpoint:DualSetpoint,
  {61bce7e6-48aa-4b4b-99f6-75748bbe26c0}, !- Handle
  conditioned space temperature setpoint, !- Name
  {d4499654-e348-4e2c-8125-ed56e6d0a4e8}, !- Heating Setpoint Temperature Schedule Name
  {10d0e2ba-d83f-4e07-974e-b506f4f41059}, !- Cooling Setpoint Temperature Schedule Name
  0;                                      !- Temperature Difference Between Cutout And Setpoint {deltaC}

OS:ScheduleTypeLimits,
  {de9091f2-1b37-4d67-9aa7-7998b9d454f5}, !- Handle
  Temperature,                            !- Name
  ,                                       !- Lower Limit Value
  ,                                       !- Upper Limit Value
  Continuous,                             !- Numeric Type
  Temperature;                            !- Unit Type

OS:Surface,
  {e9d252f7-64b1-4790-bf79-f8a0799a0784}, !- Handle
  Roof1,                                  !- Name
  RoofCeiling,                            !- Surface Type
  {ebc781a5-7984-4c42-abf2-cc6dd032341e}, !- Construction Name
  {948604d4-6f36-4439-9875-a6f9f3456e6c}, !- Space Name
  Outdoors,                               !- Outside Boundary Condition
  ,                                       !- Outside Boundary Condition Object
  SunExposed,                             !- Sun Exposure
  WindExposed,                            !- Wind Exposure
  ,                                       !- View Factor to Ground
  ,                                       !- Number of Vertices
  -19.6245848849634, 50.7456691618865, 2.4384, !- X,Y,Z Vertex 1 {m}
  -19.6245848849634, 39.4794431136661, 8.0715130241102, !- X,Y,Z Vertex 2 {m}
  -7.02856123811356, 39.4794431136661, 8.0715130241102, !- X,Y,Z Vertex 3 {m}
  -7.02856123811356, 50.7456691618865, 2.4384; !- X,Y,Z Vertex 4 {m}

OS:AdditionalProperties,
  {122a4089-a24d-4eb2-a3e1-076170506524}, !- Handle
  {e9d252f7-64b1-4790-bf79-f8a0799a0784}, !- Object Name
  Length,                                 !- Feature Name 1
  Double,                                 !- Feature Data Type 1
  41.325536899113608,                     !- Feature Value 1
  Width,                                  !- Feature Name 2
  Double,                                 !- Feature Data Type 2
  41.325536899113601,                     !- Feature Value 2
  Azimuth,                                !- Feature Name 3
  Integer,                                !- Feature Data Type 3
  0,                                      !- Feature Value 3
  Tilt,                                   !- Feature Name 4
  Double,                                 !- Feature Data Type 4
  0.5,                                    !- Feature Value 4
  SurfaceType,                            !- Feature Name 5
  String,                                 !- Feature Data Type 5
  Roof;                                   !- Feature Value 5

OS:ThermalZone,
  {9dabc898-b49c-4c92-b0b5-5508ca9b605b}, !- Handle
  attic - vented,                         !- Name
  1,                                      !- Multiplier
  ,                                       !- Ceiling Height {m}
  443.592808147228,                       !- Volume {m3}
  ,                                       !- Floor Area {m2}
  ,                                       !- Zone Inside Convection Algorithm
  ,                                       !- Zone Outside Convection Algorithm
  ,                                       !- Zone Conditioning Equipment List Name
  {ce313651-e58d-4371-b076-0aa53224b85b}, !- Zone Air Inlet Port List
  {7e89553f-01de-441a-80c3-6a137902f3df}, !- Zone Air Exhaust Port List
  {2940adbf-364d-4a47-8174-43c271223306}, !- Zone Air Node Name
  {f172f8ce-60f9-4256-9829-ced27a422019}, !- Zone Return Air Port List
  ,                                       !- Primary Daylighting Control Name
  ,                                       !- Fraction of Zone Controlled by Primary Daylighting Control
  ,                                       !- Secondary Daylighting Control Name
  ,                                       !- Fraction of Zone Controlled by Secondary Daylighting Control
  ,                                       !- Illuminance Map Name
  ,                                       !- Group Rendering Name
  ,                                       !- Thermostat Name
  No;                                     !- Use Ideal Air Loads

OS:Node,
  {07a0f247-32ae-4704-9560-a1e5f65683cf}, !- Handle
  Node 2,                                 !- Name
  {2940adbf-364d-4a47-8174-43c271223306}, !- Inlet Port
  ;                                       !- Outlet Port

OS:Connection,
  {2940adbf-364d-4a47-8174-43c271223306}, !- Handle
  {9dabc898-b49c-4c92-b0b5-5508ca9b605b}, !- Source Object
  11,                                     !- Outlet Port
  {07a0f247-32ae-4704-9560-a1e5f65683cf}, !- Target Object
  2;                                      !- Inlet Port

OS:PortList,
  {ce313651-e58d-4371-b076-0aa53224b85b}, !- Handle
  {9dabc898-b49c-4c92-b0b5-5508ca9b605b}; !- HVAC Component

OS:PortList,
  {7e89553f-01de-441a-80c3-6a137902f3df}, !- Handle
  {9dabc898-b49c-4c92-b0b5-5508ca9b605b}; !- HVAC Component

OS:PortList,
  {f172f8ce-60f9-4256-9829-ced27a422019}, !- Handle
  {9dabc898-b49c-4c92-b0b5-5508ca9b605b}; !- HVAC Component

OS:Sizing:Zone,
  {d89fa1eb-ba8b-4e0a-a31e-bb9e8abca30a}, !- Handle
  {9dabc898-b49c-4c92-b0b5-5508ca9b605b}, !- Zone or ZoneList Name
  SupplyAirTemperature,                   !- Zone Cooling Design Supply Air Temperature Input Method
  14,                                     !- Zone Cooling Design Supply Air Temperature {C}
  11.11,                                  !- Zone Cooling Design Supply Air Temperature Difference {deltaC}
  SupplyAirTemperature,                   !- Zone Heating Design Supply Air Temperature Input Method
  40,                                     !- Zone Heating Design Supply Air Temperature {C}
  11.11,                                  !- Zone Heating Design Supply Air Temperature Difference {deltaC}
  0.0085,                                 !- Zone Cooling Design Supply Air Humidity Ratio {kg-H2O/kg-air}
  0.008,                                  !- Zone Heating Design Supply Air Humidity Ratio {kg-H2O/kg-air}
  ,                                       !- Zone Heating Sizing Factor
  ,                                       !- Zone Cooling Sizing Factor
  DesignDay,                              !- Cooling Design Air Flow Method
  ,                                       !- Cooling Design Air Flow Rate {m3/s}
  ,                                       !- Cooling Minimum Air Flow per Zone Floor Area {m3/s-m2}
  ,                                       !- Cooling Minimum Air Flow {m3/s}
  ,                                       !- Cooling Minimum Air Flow Fraction
  DesignDay,                              !- Heating Design Air Flow Method
  ,                                       !- Heating Design Air Flow Rate {m3/s}
  ,                                       !- Heating Maximum Air Flow per Zone Floor Area {m3/s-m2}
  ,                                       !- Heating Maximum Air Flow {m3/s}
  ,                                       !- Heating Maximum Air Flow Fraction
  No,                                     !- Account for Dedicated Outdoor Air System
  NeutralSupplyAir,                       !- Dedicated Outdoor Air System Control Strategy
  autosize,                               !- Dedicated Outdoor Air Low Setpoint Temperature for Design {C}
  autosize,                               !- Dedicated Outdoor Air High Setpoint Temperature for Design {C}
  Sensible Load Only No Latent Load,      !- Zone Load Sizing Method
  HumidityRatioDifference,                !- Zone Latent Cooling Design Supply Air Humidity Ratio Input Method
  ,                                       !- Zone Dehumidification Design Supply Air Humidity Ratio {kgWater/kgDryAir}
  0.005,                                  !- Zone Cooling Design Supply Air Humidity Ratio Difference {kgWater/kgDryAir}
  HumidityRatioDifference,                !- Zone Latent Heating Design Supply Air Humidity Ratio Input Method
  ,                                       !- Zone Humidification Design Supply Air Humidity Ratio {kgWater/kgDryAir}
  0.005,                                  !- Zone Humidification Design Supply Air Humidity Ratio Difference {kgWater/kgDryAir}
  ,                                       !- Zone Humidistat Dehumidification Set Point Schedule Name
  ,                                       !- Zone Humidistat Humidification Set Point Schedule Name
  ,                                       !- Design Zone Air Distribution Effectiveness in Cooling Mode
  ,                                       !- Design Zone Air Distribution Effectiveness in Heating Mode
  ,                                       !- Design Zone Secondary Recirculation Fraction {dimensionless}
  ,                                       !- Design Minimum Zone Ventilation Efficiency {dimensionless}
  Coincident;                             !- Sizing Option

OS:ZoneHVAC:EquipmentList,
  {c9588b9f-bf36-4720-8426-a30a3f0304b8}, !- Handle
  Zone HVAC Equipment List 2,             !- Name
  {9dabc898-b49c-4c92-b0b5-5508ca9b605b}; !- Thermal Zone

OS:AdditionalProperties,
  {6f5c05c2-87d2-4e60-90b0-4c3398ec165b}, !- Handle
  {9dabc898-b49c-4c92-b0b5-5508ca9b605b}, !- Object Name
  ObjectType,                             !- Feature Name 1
  String,                                 !- Feature Data Type 1
  attic - vented;                         !- Feature Value 1

OS:Space,
  {948604d4-6f36-4439-9875-a6f9f3456e6c}, !- Handle
  attic - vented 1,                       !- Name
  ,                                       !- Space Type Name
  ,                                       !- Default Construction Set Name
  ,                                       !- Default Schedule Set Name
  ,                                       !- Direction of Relative North {deg}
  ,                                       !- X Origin {m}
  ,                                       !- Y Origin {m}
  ,                                       !- Z Origin {m}
  ,                                       !- Building Story Name
  {9dabc898-b49c-4c92-b0b5-5508ca9b605b}, !- Thermal Zone Name
  ,                                       !- Part of Total Floor Area
  ,                                       !- Design Specification Outdoor Air Object Name
  ,                                       !- Building Unit Name
  443.592808147228;                       !- Volume {m3}

OS:Material,
  {f5fb005d-bcf0-4f4f-a4a9-f471d9a0ef1a}, !- Handle
  asphalt or fiberglass shingles,         !- Name
  Rough,                                  !- Roughness
  0.00635,                                !- Thickness {m}
  0.162714,                               !- Conductivity {W/m-K}
  1121.4,                                 !- Density {kg/m3}
  1465.45,                                !- Specific Heat {J/kg-K}
  0.9,                                    !- Thermal Absorptance
  0.85,                                   !- Solar Absorptance