
OS:Version,
  {64ef4d84-e4e4-4272-a79e-b051a11d915f}, !- Handle
  3.9.0;                                  !- Version Identifier

OS:SimulationControl,
  {47c99c20-ad86-40d0-b2d9-a2b8a24caea8}, !- Handle
  ,                                       !- Do Zone Sizing Calculation
  ,                                       !- Do System Sizing Calculation
  ,                                       !- Do Plant Sizing Calculation
  No;                                     !- Run Simulation for Sizing Periods

OS:Timestep,
  {483e1c13-a3fa-4d82-8c36-297061a63efa}, !- Handle
  1;                                      !- Number of Timesteps per Hour

OS:ShadowCalculation,
  {966635e3-b2a1-4f35-80a2-24da624801c8}, !- Handle
  PolygonClipping,                        !- Shading Calculation Method
  ,                                       !- Shading Calculation Update Frequency Method
  20,                                     !- Shading Calculation Update Frequency
  200,                                    !- Maximum Figures in Shadow Overlap Calculations
  ,                                       !- Polygon Clipping Algorithm
  512,                                    !- Pixel Counting Resolution
  ,                                       !- Sky Diffuse Modeling Algorithm
  No,                                     !- Output External Shading Calculation Results
  No,                                     !- Disable Self-Shading Within Shading Zone Groups
  No;                                     !- Disable Self-Shading From Shading Zone Groups to Other Zones

OS:SurfaceConvectionAlgorithm:Outside,
  {db04c8d6-2fd3-4838-afcd-5614baa70b60}, !- Handle
  DOE-2;                                  !- Algorithm

OS:SurfaceConvectionAlgorithm:Inside,
  {d908af2c-21df-4f58-87f6-2f78e731570b}, !- Handle
  TARP;                                   !- Algorithm

OS:ZoneCapacitanceMultiplier:ResearchSpecial,
  {eebf16cd-d2dc-4fdd-83d6-3c02e3df4f76}, !- Handle
  7,                                      !- Temperature Capacity Multiplier
  15,                                     !- Humidity Capacity Multiplier
  ;                                       !- Carbon Dioxide Capacity Multiplier

OS:ConvergenceLimits,
  {d0b0cc57-a606-4c83-9edd-a6a36d623dd9}, !- Handle
  0;                                      !- Minimum System Timestep {minutes}

OS:RunPeriod,
  {136b645d-4a65-4df2-9c0f-0c4723344a67}, !- Handle
  Run Period 1,                           !- Name
  1,                                      !- Begin Month
  1,                                      !- Begin Day of Month
  12,                                     !- End Month
  31,                                     !- End Day of Month
  ,                                       !- Use Weather File Holidays and Special Days
  ,                                       !- Use Weather File Daylight Saving Period
  ,                                       !- Apply Weekend Holiday Rule
  ,                                       !- Use Weather File Rain Indicators
  ,                                       !- Use Weather File Snow Indicators
  ;                                       !- Number of Times Runperiod to be Repeated

OS:PerformancePrecisionTradeoffs,
  {df041978-87f3-425f-8294-62f78290ed76}, !- Handle
  ,                                       !- Use Coil Direct Solutions
  CarrollMRT;                             !- Zone Radiant Exchange Algorithm

OS:WeatherFile,
  {06092b77-f7e6-41a4-864f-d2a10f684474}, !- Handle
  Buffalo Niagara Intl Ap,                !- City
  NY,                                     !- State Province Region
  USA,                                    !- Country
  TMY3,                                   !- Data Source
  725280,                                 !- WMO Number
  42.93,                                  !- Latitude {deg}
  -78.73,                                 !- Longitude {deg}
  -5,                                     !- Time Zone {hr}
  215,                                    !- Elevation {m}
  /Users/nmoore/github/urbanopt-example-geojson-project/example_project/weather/USA_NY_Buffalo-Greater.Buffalo.Intl.AP.725280_TMY3.epw, !- Url
  6B50E0FF,                               !- Checksum
  ,                                       !- Start Date Actual Year
  Sunday;                                 !- Start Day of Week

OS:YearDescription,
  {795dabb5-de25-4f9d-a9b4-e7a0c1ea4e5f}, !- Handle
  2007,                                   !- Calendar Year
  ,                                       !- Day of Week for Start Day
  ;                                       !- Is Leap Year

OS:Site,
  {3eae011a-373a-4579-a225-d6e354da939b}, !- Handle
  Buffalo Niagara Intl Ap_NY,             !- Name
  42.93,                                  !- Latitude {deg}
  -78.73,                                 !- Longitude {deg}
  -5,                                     !- Time Zone {hr}
  215,                                    !- Elevation {m}
  Suburbs,                                !- Terrain
  Yes;                                    !- Keep Site Location Information

OS:RunPeriodControl:DaylightSavingTime,
  {4270cd05-4d48-41b6-98de-ecf55bfcf03f}, !- Handle
  Mar 12,                                 !- Start Date
  Nov 5;                                  !- End Date

OS:Site:GroundTemperature:Shallow,
  {b26ea487-79e5-464c-82ac-4cbcada285ca}, !- Handle
  4.30207395723828,                       !- January Surface Ground Temperature {C}
  2.29327249652502,                       !- February Surface Ground Temperature {C}
  2.13240047156047,                       !- March Surface Ground Temperature {C}
  3.08567940719286,                       !- April Surface Ground Temperature {C}
  6.91256312497526,                       !- May Surface Ground Temperature {C}
  10.7216195949507,                       !- June Surface Ground Temperature {C}
  14.0238679822574,                       !- July Surface Ground Temperature {C}
  16.1157611184724,                       !- August Surface Ground Temperature {C}
  16.2934789303462,                       !- September Surface Ground Temperature {C}
  14.5920754632847,                       !- October Surface Ground Temperature {C}
  11.374036348653,                        !- November Surface Ground Temperature {C}
  7.68182621661674;                       !- December Surface Ground Temperature {C}

OS:ThermalZone,
  {4425569a-d456-4221-8f58-52d808b0a4d1}, !- Handle
  conditioned space,                      !- Name
  1,                                      !- Multiplier
  ,                                       !- Ceiling Height {m}
  951.587629724161,                       !- Volume {m3}
  ,                                       !- Floor Area {m2}
  ,                                       !- Zone Inside Convection Algorithm
  ,                                       !- Zone Outside Convection Algorithm
  ,                                       !- Zone Conditioning Equipment List Name
  {e06edfb2-ae73-46e1-a528-5e9bf9a24b2e}, !- Zone Air Inlet Port List
  {6016ff48-0d3b-489d-b2aa-dff615a28ee8}, !- Zone Air Exhaust Port List
  {451aae1c-224d-47b2-891c-cf519abe1c1e}, !- Zone Air Node Name
  {24040af2-d32c-4480-b7ad-144a44e8323b}, !- Zone Return Air Port List
  ,                                       !- Primary Daylighting Control Name
  ,                                       !- Fraction of Zone Controlled by Primary Daylighting Control
  ,                                       !- Secondary Daylighting Control Name
  ,                                       !- Fraction of Zone Controlled by Secondary Daylighting Control
  ,                                       !- Illuminance Map Name
  ,                                       !- Group Rendering Name
  {dcfe6cfc-e097-4ede-a8e3-c3f8f1095e52}, !- Thermostat Name
  No;                                     !- Use Ideal Air Loads

OS:Node,
  {ce8f3dee-eff9-44a2-a042-96b8b03fcc65}, !- Handle
  Node 1,                                 !- Name
  {451aae1c-224d-47b2-891c-cf519abe1c1e}, !- Inlet Port
  ;                                       !- Outlet Port

OS:Connection,
  {451aae1c-224d-47b2-891c-cf519abe1c1e}, !- Handle
  {4425569a-d456-4221-8f58-52d808b0a4d1}, !- Source Object
  11,                                     !- Outlet Port
  {ce8f3dee-eff9-44a2-a042-96b8b03fcc65}, !- Target Object
  2;                                      !- Inlet Port

OS:PortList,
  {e06edfb2-ae73-46e1-a528-5e9bf9a24b2e}, !- Handle
  {4425569a-d456-4221-8f58-52d808b0a4d1}, !- HVAC Component
  {72d9a0ee-0764-4250-ba3e-eb857d8b038e}; !- Port 1

OS:PortList,
  {6016ff48-0d3b-489d-b2aa-dff615a28ee8}, !- Handle
  {4425569a-d456-4221-8f58-52d808b0a4d1}; !- HVAC Component

OS:PortList,
  {24040af2-d32c-4480-b7ad-144a44e8323b}, !- Handle
  {4425569a-d456-4221-8f58-52d808b0a4d1}, !- HVAC Component
  {96d4d98e-0c14-4c61-ba77-5d9951823076}; !- Port 1

OS:Sizing:Zone,
  {3126ae5e-5875-4c12-87e6-9a19eafadcc7}, !- Handle
  {4425569a-d456-4221-8f58-52d808b0a4d1}, !- Zone or ZoneList Name
  SupplyAirTemperature,                   !- Zone Cooling Design Supply Air Temperature Input Method
  14,                                     !- Zone Cooling Design Supply Air Temperature {C}
  11.11,                                  !- Zone Cooling Design Supply Air Temperature Difference {deltaC}
  SupplyAirTemperature,                   !- Zone Heating Design Supply Air Temperature Input Method
  40,                                     !- Zone Heating Design Supply Air Temperature {C}
  11.11,                                  !- Zone Heating Design Supply Air Temperature Difference {deltaC}
  0.0085,                                 !- Zone Cooling Design Supply Air Humidity Ratio {kg-H2O/kg-air}
  0.008,                                  !- Zone Heating Design Supply Air Humidity Ratio {kg-H2O/kg-air}
  ,                                       !- Zone Heating Sizing Factor
  ,                                       !- Zone Cooling Sizing Factor
  DesignDay,                              !- Cooling Design Air Flow Method
  ,                                       !- Cooling Design Air Flow Rate {m3/s}
  ,                                       !- Cooling Minimum Air Flow per Zone Floor Area {m3/s-m2}
  ,                                       !- Cooling Minimum Air Flow {m3/s}
  ,                                       !- Cooling Minimum Air Flow Fraction
  DesignDay,                              !- Heating Design Air Flow Method
  ,                                       !- Heating Design Air Flow Rate {m3/s}
  ,                                       !- Heating Maximum Air Flow per Zone Floor Area {m3/s-m2}
  ,                                       !- Heating Maximum Air Flow {m3/s}
  ,                                       !- Heating Maximum Air Flow Fraction
  No,                                     !- Account for Dedicated Outdoor Air System
  NeutralSupplyAir,                       !- Dedicated Outdoor Air System Control Strategy
  autosize,                               !- Dedicated Outdoor Air Low Setpoint Temperature for Design {C}
  autosize,                               !- Dedicated Outdoor Air High Setpoint Temperature for Design {C}
  Sensible Load Only No Latent Load,      !- Zone Load Sizing Method
  HumidityRatioDifference,                !- Zone Latent Cooling Design Supply Air Humidity Ratio Input Method
  ,                                       !- Zone Dehumidification Design Supply Air Humidity Ratio {kgWater/kgDryAir}
  0.005,                                  !- Zone Cooling Design Supply Air Humidity Ratio Difference {kgWater/kgDryAir}
  HumidityRatioDifference,                !- Zone Latent Heating Design Supply Air Humidity Ratio Input Method
  ,                                       !- Zone Humidification Design Supply Air Humidity Ratio {kgWater/kgDryAir}
  0.005,                                  !- Zone Humidification Design Supply Air Humidity Ratio Difference {kgWater/kgDryAir}
  ,                                       !- Zone Humidistat Dehumidification Set Point Schedule Name
  ,                                       !- Zone Humidistat Humidification Set Point Schedule Name
  ,                                       !- Design Zone Air Distribution Effectiveness in Cooling Mode
  ,                                       !- Design Zone Air Distribution Effectiveness in Heating Mode
  ,                                       !- Design Zone Secondary Recirculation Fraction {dimensionless}
  ,                                       !- Design Minimum Zone Ventilation Efficiency {dimensionless}
  Coincident;                             !- Sizing Option

OS:ZoneHVAC:EquipmentList,
  {84245566-6fbd-4b85-8efd-89af28cee69f}, !- Handle
  Zone HVAC Equipment List 1,             !- Name
  {4425569a-d456-4221-8f58-52d808b0a4d1}, !- Thermal Zone
  ,                                       !- Load Distribution Scheme
  {0d397d7c-e762-41fd-a73e-eacdcae05e58}, !- Zone Equipment 1
  1,                                      !- Zone Equipment Cooling Sequence 1
  1,                                      !- Zone Equipment Heating or No-Load Sequence 1
  {21f8eb11-8a2d-4f85-8b78-a500fd2dfdd5}, !- Zone Equipment Sequential Cooling Fraction Schedule Name 1
  {46764f5d-a498-44c9-ab5d-a327a709645e}; !- Zone Equipment Sequential Heating Fraction Schedule Name 1

OS:AdditionalProperties,
  {a4edcf64-8e43-494b-9fea-022997359352}, !- Handle
  {4425569a-d456-4221-8f58-52d808b0a4d1}, !- Object Name
  ObjectType,                             !- Feature Name 1
  String,                                 !- Feature Data Type 1
  conditioned space;                      !- Feature Value 1

OS:Space,
  {694db43b-2bd2-4f49-bd08-0d561dd3d67b}, !- Handle
  conditioned space 1,                    !- Name
  ,                                       !- Space Type Name
  ,                                       !- Default Construction Set Name
  ,                                       !- Default Schedule Set Name
  ,                                       !- Direction of Relative North {deg}
  ,                                       !- X Origin {m}
  ,                                       !- Y Origin {m}
  ,                                       !- Z Origin {m}
  ,                                       !- Building Story Name
  {4425569a-d456-4221-8f58-52d808b0a4d1}, !- Thermal Zone Name
  ,                                       !- Part of Total Floor Area
  ,                                       !- Design Specification Outdoor Air Object Name
  ,                                       !- Building Unit Name
  951.587629724161;                       !- Volume {m3}

OS:Schedule:Ruleset,
  {b0b51b3a-2547-422e-a8f9-8b37b30e7701}, !- Handle
  heating setpoint,                       !- Name
  {440be880-5155-4215-aa1a-fa5d376f3eda}, !- Schedule Type Limits Name
  {b39384d4-4188-485d-9a7d-d732f5b8021f}; !- Default Day Schedule Name

OS:Schedule:Day,
  {b39384d4-4188-485d-9a7d-d732f5b8021f}, !- Handle
  heating setpoint default day,           !- Name
  {440be880-5155-4215-aa1a-fa5d376f3eda}, !- Schedule Type Limits Name
  ,                                       !- Interpolate to Timestep
  24,                                     !- Hour 1
  0,                                      !- Minute 1
  0;                                      !- Value Until Time 1

OS:Schedule:Rule,
  {f6b39959-b5b8-4e87-8883-e5b93f04c988}, !- Handle
  heating setpoint allday rule,           !- Name
  {b0b51b3a-2547-422e-a8f9-8b37b30e7701}, !- Schedule Ruleset Name
  0,                                      !- Rule Order
  {b820f5b9-90e5-4065-b49f-7c4491578c5f}, !- Day Schedule Name
  Yes,                                    !- Apply Sunday
  Yes,                                    !- Apply Monday
  Yes,                                    !- Apply Tuesday
  Yes,                                    !- Apply Wednesday
  Yes,                                    !- Apply Thursday
  Yes,                                    !- Apply Friday
  Yes,                                    !- Apply Saturday
  DateRange,                              !- Date Specification Type
  1,                                      !- Start Month
  1,                                      !- Start Day
  12,                                     !- End Month
  31;                                     !- End Day

OS:Schedule:Day,
  {b820f5b9-90e5-4065-b49f-7c4491578c5f}, !- Handle
  heating setpoint day,                   !- Name
  {440be880-5155-4215-aa1a-fa5d376f3eda}, !- Schedule Type Limits Name
  ,                                       !- Interpolate to Timestep
  24,                                     !- Hour 1
  0,                                      !- Minute 1
  20;                                     !- Value Until Time 1

OS:Schedule:Ruleset,
  {2b0a00ab-65b2-4143-ad8f-63d9688f7f9f}, !- Handle
  cooling setpoint,                       !- Name
  {440be880-5155-4215-aa1a-fa5d376f3eda}, !- Schedule Type Limits Name
  {8ddd5017-465f-4b5f-8963-d1abbfa0a33f}; !- Default Day Schedule Name

OS:Schedule:Day,
  {8ddd5017-465f-4b5f-8963-d1abbfa0a33f}, !- Handle
  cooling setpoint default day,           !- Name
  {440be880-5155-4215-aa1a-fa5d376f3eda}, !- Schedule Type Limits Name
  ,                                       !- Interpolate to Timestep
  24,                                     !- Hour 1
  0,                                      !- Minute 1
  0;                                      !- Value Until Time 1

OS:Schedule:Rule,
  {a3f6c7bc-e4c0-4ec8-9493-a1b490c96ed2}, !- Handle
  cooling setpoint allday rule,           !- Name
  {2b0a00ab-65b2-4143-ad8f-63d9688f7f9f}, !- Schedule Ruleset Name
  0,                                      !- Rule Order
  {5f47ba10-7a58-4b0d-92a0-f5a14dcce65e}, !- Day Schedule Name
  Yes,                                    !- Apply Sunday
  Yes,                                    !- Apply Monday
  Yes,                                    !- Apply Tuesday
  Yes,                                    !- Apply Wednesday
  Yes,                                    !- Apply Thursday
  Yes,                                    !- Apply Friday
  Yes,                                    !- Apply Saturday
  DateRange,                              !- Date Specification Type
  1,                                      !- Start Month
  1,                                      !- Start Day
  12,                                     !- End Month
  31;                                     !- End Day

OS:Schedule:Day,
  {5f47ba10-7a58-4b0d-92a0-f5a14dcce65e}, !- Handle
  cooling setpoint day,                   !- Name
  {440be880-5155-4215-aa1a-fa5d376f3eda}, !- Schedule Type Limits Name
  ,                                       !- Interpolate to Timestep
  24,                                     !- Hour 1
  0,                                      !- Minute 1
  25.5555555555556;                       !- Value Until Time 1

OS:ThermostatSetpoint:DualSetpoint,
  {dcfe6cfc-e097-4ede-a8e3-c3f8f1095e52}, !- Handle
  conditioned space temperature setpoint, !- Name
  {b0b51b3a-2547-422e-a8f9-8b37b30e7701}, !- Heating Setpoint Temperature Schedule Name
  {2b0a00ab-65b2-4143-ad8f-63d9688f7f9f}, !- Cooling Setpoint Temperature Schedule Name
  0;                                      !- Temperature Difference Between Cutout And Setpoint {deltaC}

OS:ScheduleTypeLimits,
  {440be880-5155-4215-aa1a-fa5d376f3eda}, !- Handle
  Temperature,                            !- Name
  ,                                       !- Lower Limit Value
  ,                                       !- Upper Limit Value
  Continuous,                             !- Numeric Type
  Temperature;                            !- Unit Type

OS:Surface,
  {75f12416-c59e-473a-903b-a05067fa207e}, !- Handle
  Roof1,                                  !- Name
  RoofCeiling,                            !- Surface Type
  {96d04662-60cc-4d7f-b2f3-31127b5307c0}, !- Construction Name
  {57586ee5-c289-456e-932b-d54ad35b27ad}, !- Space Name
  Outdoors,                               !- Outside Boundary Condition
  ,                                       !- Outside Boundary Condition Object
  SunExposed,                             !- Sun Exposure
  WindExposed,                            !- Wind Exposure
  ,                                       !- View Factor to Ground
  ,                                       !- Number of Vertices
  -19.6245848849634, 50.7456691618865, 2.4384, !- X,Y,Z Vertex 1 {m}
  -19.6245848849634, 39.4794431136661, 8.0715130241102, !- X,Y,Z Vertex 2 {m}
  -7.02856123811356, 39.4794431136661, 8.0715130241102, !- X,Y,Z Vertex 3 {m}
  -7.02856123811356, 50.7456691618865, 2.4384; !- X,Y,Z Vertex 4 {m}

OS:AdditionalProperties,
  {2e6d4642-2eed-412a-87e0-f41428e73089}, !- Handle
  {75f12416-c59e-473a-903b-a05067fa207e}, !- Object Name
  Length,                                 !- Feature Name 1
  Double,                                 !- Feature Data Type 1
  41.325536899113608,                     !- Feature Value 1
  Width,                                  !- Feature Name 2
  Double,                                 !- Feature Data Type 2
  41.325536899113601,                     !- Feature Value 2
  Azimuth,                                !- Feature Name 3
  Integer,                                !- Feature Data Type 3
  0,                                      !- Feature Value 3
  Tilt,                                   !- Feature Name 4
  Double,                                 !- Feature Data Type 4
  0.5,                                    !- Feature Value 4
  SurfaceType,                            !- Feature Name 5
  String,                                 !- Feature Data Type 5
  Roof;                                   !- Feature Value 5

OS:ThermalZone,
  {84bddeee-ec06-447c-a649-562824c583e9}, !- Handle
  attic - vented,                         !- Name
  1,                                      !- Multiplier
  ,                                       !- Ceiling Height {m}
  443.601251426534,                       !- Volume {m3}
  ,                                       !- Floor Area {m2}
  ,                                       !- Zone Inside Convection Algorithm
  ,                                       !- Zone Outside Convection Algorithm
  ,                                       !- Zone Conditioning Equipment List Name
  {a4c5d19f-88a1-459e-817e-4758891bdac8}, !- Zone Air Inlet Port List
  {cebcc64a-0912-4f8f-b842-cea5f64ccd2b}, !- Zone Air Exhaust Port List
  {b9f0d361-8cec-48d6-af93-0ffa36e8bcdd}, !- Zone Air Node Name
  {69329004-1214-4f7c-8bb3-a5805dd203aa}, !- Zone Return Air Port List
  ,                                       !- Primary Daylighting Control Name
  ,                                       !- Fraction of Zone Controlled by Primary Daylighting Control
  ,                                       !- Secondary Daylighting Control Name
  ,                                       !- Fraction of Zone Controlled by Secondary Daylighting Control
  ,                                       !- Illuminance Map Name
  ,                                       !- Group Rendering Name
  ,                                       !- Thermostat Name
  No;                                     !- Use Ideal Air Loads

OS:Node,
  {21f503ec-3832-4b87-9eae-080303fe01bb}, !- Handle
  Node 2,                                 !- Name
  {b9f0d361-8cec-48d6-af93-0ffa36e8bcdd}, !- Inlet Port
  ;                                       !- Outlet Port

OS:Connection,
  {b9f0d361-8cec-48d6-af93-0ffa36e8bcdd}, !- Handle
  {84bddeee-ec06-447c-a649-562824c583e9}, !- Source Object
  11,                                     !- Outlet Port
  {21f503ec-3832-4b87-9eae-080303fe01bb}, !- Target Object
  2;                                      !- Inlet Port

OS:PortList,
  {a4c5d19f-88a1-459e-817e-4758891bdac8}, !- Handle
  {84bddeee-ec06-447c-a649-562824c583e9}; !- HVAC Component

OS:PortList,
  {cebcc64a-0912-4f8f-b842-cea5f64ccd2b}, !- Handle
  {84bddeee-ec06-447c-a649-562824c583e9}; !- HVAC Component

OS:PortList,
  {69329004-1214-4f7c-8bb3-a5805dd203aa}, !- Handle
  {84bddeee-ec06-447c-a649-562824c583e9}; !- HVAC Component

OS:Sizing:Zone,
  {4a19f0bf-e4aa-4d30-9814-2429686d693c}, !- Handle
  {84bddeee-ec06-447c-a649-562824c583e9}, !- Zone or ZoneList Name
  SupplyAirTemperature,                   !- Zone Cooling Design Supply Air Temperature Input Method
  14,                                     !- Zone Cooling Design Supply Air Temperature {C}
  11.11,                                  !- Zone Cooling Design Supply Air Temperature Difference {deltaC}
  SupplyAirTemperature,                   !- Zone Heating Design Supply Air Temperature Input Method
  40,                                     !- Zone Heating Design Supply Air Temperature {C}
  11.11,                                  !- Zone Heating Design Supply Air Temperature Difference {deltaC}
  0.0085,                                 !- Zone Cooling Design Supply Air Humidity Ratio {kg-H2O/kg-air}
  0.008,                                  !- Zone Heating Design Supply Air Humidity Ratio {kg-H2O/kg-air}
  ,                                       !- Zone Heating Sizing Factor
  ,                                       !- Zone Cooling Sizing Factor
  DesignDay,                              !- Cooling Design Air Flow Method
  ,                                       !- Cooling Design Air Flow Rate {m3/s}
  ,                                       !- Cooling Minimum Air Flow per Zone Floor Area {m3/s-m2}
  ,                                       !- Cooling Minimum Air Flow {m3/s}
  ,                                       !- Cooling Minimum Air Flow Fraction
  DesignDay,                              !- Heating Design Air Flow Method
  ,                                       !- Heating Design Air Flow Rate {m3/s}
  ,                                       !- Heating Maximum Air Flow per Zone Floor Area {m3/s-m2}
  ,                                       !- Heating Maximum Air Flow {m3/s}
  ,                                       !- Heating Maximum Air Flow Fraction
  No,                                     !- Account for Dedicated Outdoor Air System
  NeutralSupplyAir,                       !- Dedicated Outdoor Air System Control Strategy
  autosize,                               !- Dedicated Outdoor Air Low Setpoint Temperature for Design {C}
  autosize,                               !- Dedicated Outdoor Air High Setpoint Temperature for Design {C}
  Sensible Load Only No Latent Load,      !- Zone Load Sizing Method
  HumidityRatioDifference,                !- Zone Latent Cooling Design Supply Air Humidity Ratio Input Method
  ,                                       !- Zone Dehumidification Design Supply Air Humidity Ratio {kgWater/kgDryAir}
  0.005,                                  !- Zone Cooling Design Supply Air Humidity Ratio Difference {kgWater/kgDryAir}
  HumidityRatioDifference,                !- Zone Latent Heating Design Supply Air Humidity Ratio Input Method
  ,                                       !- Zone Humidification Design Supply Air Humidity Ratio {kgWater/kgDryAir}
  0.005,                                  !- Zone Humidification Design Supply Air Humidity Ratio Difference {kgWater/kgDryAir}
  ,                                       !- Zone Humidistat Dehumidification Set Point Schedule Name
  ,                                       !- Zone Humidistat Humidification Set Point Schedule Name
  ,                                       !- Design Zone Air Distribution Effectiveness in Cooling Mode
  ,                                       !- Design Zone Air Distribution Effectiveness in Heating Mode
  ,                                       !- Design Zone Secondary Recirculation Fraction {dimensionless}
  ,                                       !- Design Minimum Zone Ventilation Efficiency {dimensionless}
  Coincident;                             !- Sizing Option

OS:ZoneHVAC:EquipmentList,
  {4a240e34-a619-4447-8472-d2a398669247}, !- Handle
  Zone HVAC Equipment List 2,             !- Name
  {84bddeee-ec06-447c-a649-562824c583e9}; !- Thermal Zone

OS:AdditionalProperties,
  {450918e2-c656-4840-9469-aae729943978}, !- Handle
  {84bddeee-ec06-447c-a649-562824c583e9}, !- Object Name
  ObjectType,                             !- Feature Name 1
  String,                                 !- Feature Data Type 1
  attic - vented;                         !- Feature Value 1

OS:Space,
  {57586ee5-c289-456e-932b-d54ad35b27ad}, !- Handle
  attic - vented 1,                       !- Name
  ,                                       !- Space Type Name
  ,                                       !- Default Construction Set Name
  ,                                       !- Default Schedule Set Name
  ,                                       !- Direction of Relative North {deg}
  ,                                       !- X Origin {m}
  ,                                       !- Y Origin {m}
  ,                                       !- Z Origin {m}
  ,                                       !- Building Story Name
  {84bddeee-ec06-447c-a649-562824c583e9}, !- Thermal Zone Name
  ,                                       !- Part of Total Floor Area
  ,                                       !- Design Specification Outdoor Air Object Name
  ,                                       !- Building Unit Name
  443.601251426534;                       !- Volume {m3}

OS:Material,
  {820156a9-e61d-45be-a9f6-d180efb7c8dc}, !- Handle
  asphalt or fiberglass shingles,         !- Name
  Rough,                                  !- Roughness
  0.00635,                                !- Thickness {m}
  0.162714,                               !- Conductivity {W/m-K}
  1121.4,                                 !- Density {kg/m3}
  1465.45,                                !- Specific Heat {J/kg-K}
  0.9,                                    !- Thermal Absorptance
  0.85,                                   !- Solar Absorptance