
OS:Version,
  {26f6c353-ef48-426c-933e-f9c142063d93}, !- Handle
  3.10.0;                                 !- Version Identifier

OS:SimulationControl,
  {90c66e8d-ddb7-4e3d-aaa7-090cd8952c01}, !- Handle
  ,                                       !- Do Zone Sizing Calculation
  ,                                       !- Do System Sizing Calculation
  ,                                       !- Do Plant Sizing Calculation
  No;                                     !- Run Simulation for Sizing Periods

OS:Timestep,
  {9e38cff3-9d15-4475-ad2c-f134187a5dfa}, !- Handle
  1;                                      !- Number of Timesteps per Hour

OS:ShadowCalculation,
  {e8e40f60-8c80-4787-bab6-1b75b9b838b3}, !- Handle
  PolygonClipping,                        !- Shading Calculation Method
  ,                                       !- Shading Calculation Update Frequency Method
  20,                                     !- Shading Calculation Update Frequency
  200,                                    !- Maximum Figures in Shadow Overlap Calculations
  ,                                       !- Polygon Clipping Algorithm
  512,                                    !- Pixel Counting Resolution
  ,                                       !- Sky Diffuse Modeling Algorithm
  No,                                     !- Output External Shading Calculation Results
  No,                                     !- Disable Self-Shading Within Shading Zone Groups
  No;                                     !- Disable Self-Shading From Shading Zone Groups to Other Zones

OS:SurfaceConvectionAlgorithm:Outside,
  {685f6b26-ca9b-4e6d-9e06-ba9b3cb590e7}, !- Handle
  DOE-2;                                  !- Algorithm

OS:SurfaceConvectionAlgorithm:Inside,
  {e2175ab6-1dc9-4645-920b-bc6f9743eb1b}, !- Handle
  TARP;                                   !- Algorithm

OS:ZoneCapacitanceMultiplier:ResearchSpecial,
  {0b51bd15-a0ae-49e8-8a55-94a1d5de8fb4}, !- Handle
  7,                                      !- Temperature Capacity Multiplier
  15,                                     !- Humidity Capacity Multiplier
  ;                                       !- Carbon Dioxide Capacity Multiplier

OS:ConvergenceLimits,
  {29a23618-447c-44ef-a3e5-4a289d2ca011}, !- Handle
  0;                                      !- Minimum System Timestep {minutes}

OS:RunPeriod,
  {c362de50-56c6-4822-985a-5e2d70a5e33c}, !- Handle
  Run Period 1,                           !- Name
  1,                                      !- Begin Month
  1,                                      !- Begin Day of Month
  12,                                     !- End Month
  31,                                     !- End Day of Month
  ,                                       !- Use Weather File Holidays and Special Days
  ,                                       !- Use Weather File Daylight Saving Period
  ,                                       !- Apply Weekend Holiday Rule
  ,                                       !- Use Weather File Rain Indicators
  ,                                       !- Use Weather File Snow Indicators
  ;                                       !- Number of Times Runperiod to be Repeated

OS:PerformancePrecisionTradeoffs,
  {f6ebe3eb-46ed-4346-898a-7ce7710c28a2}, !- Handle
  ,                                       !- Use Coil Direct Solutions
  CarrollMRT;                             !- Zone Radiant Exchange Algorithm

OS:WeatherFile,
  {3850bc2e-956b-4ba6-941e-c7605fd9f896}, !- Handle
  Buffalo Niagara Intl Ap,                !- City
  NY,                                     !- State Province Region
  USA,                                    !- Country
  TMY3,                                   !- Data Source
  725280,                                 !- WMO Number
  42.93,                                  !- Latitude {deg}
  -78.73,                                 !- Longitude {deg}
  -5,                                     !- Time Zone {hr}
  215,                                    !- Elevation {m}
  /Users/nmoore/github/urbanopt-example-geojson-project/example_project/weather/USA_NY_Buffalo-Greater.Buffalo.Intl.AP.725280_TMY3.epw, !- Url
  6B50E0FF,                               !- Checksum
  ,                                       !- Start Date Actual Year
  Sunday;                                 !- Start Day of Week

OS:YearDescription,
  {0c05f532-9f90-4e0c-bf5d-634ba0f8b5c7}, !- Handle
  2007,                                   !- Calendar Year
  ,                                       !- Day of Week for Start Day
  ;                                       !- Is Leap Year

OS:Site,
  {eadc862b-5a92-42c2-af23-40d2dfb9dbba}, !- Handle
  Buffalo Niagara Intl Ap_NY,             !- Name
  42.93,                                  !- Latitude {deg}
  -78.73,                                 !- Longitude {deg}
  -5,                                     !- Time Zone {hr}
  215,                                    !- Elevation {m}
  Suburbs,                                !- Terrain
  Yes;                                    !- Keep Site Location Information

OS:RunPeriodControl:DaylightSavingTime,
  {c7d54b16-403e-4353-942f-c15084c0ddb1}, !- Handle
  Mar 12,                                 !- Start Date
  Nov 5;                                  !- End Date

OS:Site:GroundTemperature:Shallow,
  {3f2d9b2f-184b-47d8-a0b1-532351956877}, !- Handle
  4.30207395723828,                       !- January Surface Ground Temperature {C}
  2.29327249652502,                       !- February Surface Ground Temperature {C}
  2.13240047156047,                       !- March Surface Ground Temperature {C}
  3.08567940719286,                       !- April Surface Ground Temperature {C}
  6.91256312497526,                       !- May Surface Ground Temperature {C}
  10.7216195949507,                       !- June Surface Ground Temperature {C}
  14.0238679822574,                       !- July Surface Ground Temperature {C}
  16.1157611184724,                       !- August Surface Ground Temperature {C}
  16.2934789303462,                       !- September Surface Ground Temperature {C}
  14.5920754632847,                       !- October Surface Ground Temperature {C}
  11.374036348653,                        !- November Surface Ground Temperature {C}
  7.68182621661674;                       !- December Surface Ground Temperature {C}

OS:ThermalZone,
  {f8c9dd74-ac5e-4ab2-b8f4-16b1626dd493}, !- Handle
  conditioned space,                      !- Name
  1,                                      !- Multiplier
  ,                                       !- Ceiling Height {m}
  692.06373070848,                        !- Volume {m3}
  ,                                       !- Floor Area {m2}
  ,                                       !- Zone Inside Convection Algorithm
  ,                                       !- Zone Outside Convection Algorithm
  ,                                       !- Zone Conditioning Equipment List Name
  {434774a4-72da-43e3-889c-5fb61a4ba4fa}, !- Zone Air Inlet Port List
  {e0f5a225-bb01-4fdf-9e75-0637c9b33d42}, !- Zone Air Exhaust Port List
  {d7c7b632-948c-480d-8a0a-1e09335c9c62}, !- Zone Air Node Name
  {f849f013-7a90-4026-9e54-cfffc8793f86}, !- Zone Return Air Port List
  ,                                       !- Primary Daylighting Control Name
  ,                                       !- Fraction of Zone Controlled by Primary Daylighting Control
  ,                                       !- Secondary Daylighting Control Name
  ,                                       !- Fraction of Zone Controlled by Secondary Daylighting Control
  ,                                       !- Illuminance Map Name
  ,                                       !- Group Rendering Name
  {39572287-da24-43cd-8618-e0cebaadb14d}, !- Thermostat Name
  No;                                     !- Use Ideal Air Loads

OS:Node,
  {cde64007-1afa-4f4b-add0-dac10b821208}, !- Handle
  Node 1,                                 !- Name
  {d7c7b632-948c-480d-8a0a-1e09335c9c62}, !- Inlet Port
  ;                                       !- Outlet Port

OS:Connection,
  {d7c7b632-948c-480d-8a0a-1e09335c9c62}, !- Handle
  {f8c9dd74-ac5e-4ab2-b8f4-16b1626dd493}, !- Source Object
  11,                                     !- Outlet Port
  {cde64007-1afa-4f4b-add0-dac10b821208}, !- Target Object
  2;                                      !- Inlet Port

OS:PortList,
  {434774a4-72da-43e3-889c-5fb61a4ba4fa}, !- Handle
  {f8c9dd74-ac5e-4ab2-b8f4-16b1626dd493}, !- HVAC Component
  {97d158f5-806a-44de-ba8c-1387a31b5afc}; !- Port 1

OS:PortList,
  {e0f5a225-bb01-4fdf-9e75-0637c9b33d42}, !- Handle
  {f8c9dd74-ac5e-4ab2-b8f4-16b1626dd493}; !- HVAC Component

OS:PortList,
  {f849f013-7a90-4026-9e54-cfffc8793f86}, !- Handle
  {f8c9dd74-ac5e-4ab2-b8f4-16b1626dd493}, !- HVAC Component
  {b0809579-2432-40ff-afc8-35179909ac3a}; !- Port 1

OS:Sizing:Zone,
  {757c87e4-2d28-4525-9bf3-21e3a11dfb91}, !- Handle
  {f8c9dd74-ac5e-4ab2-b8f4-16b1626dd493}, !- Zone or ZoneList Name
  SupplyAirTemperature,                   !- Zone Cooling Design Supply Air Temperature Input Method
  14,                                     !- Zone Cooling Design Supply Air Temperature {C}
  11.11,                                  !- Zone Cooling Design Supply Air Temperature Difference {deltaC}
  SupplyAirTemperature,                   !- Zone Heating Design Supply Air Temperature Input Method
  40,                                     !- Zone Heating Design Supply Air Temperature {C}
  11.11,                                  !- Zone Heating Design Supply Air Temperature Difference {deltaC}
  0.0085,                                 !- Zone Cooling Design Supply Air Humidity Ratio {kg-H2O/kg-air}
  0.008,                                  !- Zone Heating Design Supply Air Humidity Ratio {kg-H2O/kg-air}
  ,                                       !- Zone Heating Sizing Factor
  ,                                       !- Zone Cooling Sizing Factor
  DesignDay,                              !- Cooling Design Air Flow Method
  ,                                       !- Cooling Design Air Flow Rate {m3/s}
  ,                                       !- Cooling Minimum Air Flow per Zone Floor Area {m3/s-m2}
  ,                                       !- Cooling Minimum Air Flow {m3/s}
  ,                                       !- Cooling Minimum Air Flow Fraction
  DesignDay,                              !- Heating Design Air Flow Method
  ,                                       !- Heating Design Air Flow Rate {m3/s}
  ,                                       !- Heating Maximum Air Flow per Zone Floor Area {m3/s-m2}
  ,                                       !- Heating Maximum Air Flow {m3/s}
  ,                                       !- Heating Maximum Air Flow Fraction
  No,                                     !- Account for Dedicated Outdoor Air System
  NeutralSupplyAir,                       !- Dedicated Outdoor Air System Control Strategy
  autosize,                               !- Dedicated Outdoor Air Low Setpoint Temperature for Design {C}
  autosize,                               !- Dedicated Outdoor Air High Setpoint Temperature for Design {C}
  Sensible Load Only No Latent Load,      !- Zone Load Sizing Method
  HumidityRatioDifference,                !- Zone Latent Cooling Design Supply Air Humidity Ratio Input Method
  ,                                       !- Zone Dehumidification Design Supply Air Humidity Ratio {kgWater/kgDryAir}
  0.005,                                  !- Zone Cooling Design Supply Air Humidity Ratio Difference {kgWater/kgDryAir}
  HumidityRatioDifference,                !- Zone Latent Heating Design Supply Air Humidity Ratio Input Method
  ,                                       !- Zone Humidification Design Supply Air Humidity Ratio {kgWater/kgDryAir}
  0.005,                                  !- Zone Humidification Design Supply Air Humidity Ratio Difference {kgWater/kgDryAir}
  ,                                       !- Zone Humidistat Dehumidification Set Point Schedule Name
  ,                                       !- Zone Humidistat Humidification Set Point Schedule Name
  ,                                       !- Design Zone Air Distribution Effectiveness in Cooling Mode
  ,                                       !- Design Zone Air Distribution Effectiveness in Heating Mode
  ,                                       !- Design Zone Secondary Recirculation Fraction {dimensionless}
  ,                                       !- Design Minimum Zone Ventilation Efficiency {dimensionless}
  Coincident;                             !- Sizing Option

OS:ZoneHVAC:EquipmentList,
  {d2b8964d-1197-4a90-819c-77f6d6e807ad}, !- Handle
  Zone HVAC Equipment List 1,             !- Name
  {f8c9dd74-ac5e-4ab2-b8f4-16b1626dd493}, !- Thermal Zone
  ,                                       !- Load Distribution Scheme
  {5d4b49c1-4c86-4628-b47a-dc40f38e77bb}, !- Zone Equipment 1
  1,                                      !- Zone Equipment Cooling Sequence 1
  1,                                      !- Zone Equipment Heating or No-Load Sequence 1
  {4ebb28c8-c225-4eaf-8485-6c2d2d0439ef}, !- Zone Equipment Sequential Cooling Fraction Schedule Name 1
  {9d2c410b-f9d5-43b9-9aea-d858d18568c0}; !- Zone Equipment Sequential Heating Fraction Schedule Name 1

OS:AdditionalProperties,
  {1224ae4c-cf72-4676-8b74-b3d3407985ec}, !- Handle
  {f8c9dd74-ac5e-4ab2-b8f4-16b1626dd493}, !- Object Name
  ObjectType,                             !- Feature Name 1
  String,                                 !- Feature Data Type 1
  conditioned space;                      !- Feature Value 1

OS:Space,
  {8f12113b-c7c6-4405-a887-39e61f137b7f}, !- Handle
  conditioned space 1,                    !- Name
  ,                                       !- Space Type Name
  ,                                       !- Default Construction Set Name
  ,                                       !- Default Schedule Set Name
  ,                                       !- Direction of Relative North {deg}
  ,                                       !- X Origin {m}
  ,                                       !- Y Origin {m}
  ,                                       !- Z Origin {m}
  ,                                       !- Building Story Name
  {f8c9dd74-ac5e-4ab2-b8f4-16b1626dd493}, !- Thermal Zone Name
  ,                                       !- Part of Total Floor Area
  ,                                       !- Design Specification Outdoor Air Object Name
  ,                                       !- Building Unit Name
  692.06373070848;                        !- Volume {m3}

OS:Schedule:Ruleset,
  {c7765963-b7aa-4b50-810a-cb784e734230}, !- Handle
  heating setpoint,                       !- Name
  {e9cd5ef6-334d-4d27-988c-e9f057bef594}, !- Schedule Type Limits Name
  {6b1770d5-2697-47fa-99bd-fe5dc18e4921}; !- Default Day Schedule Name

OS:Schedule:Day,
  {6b1770d5-2697-47fa-99bd-fe5dc18e4921}, !- Handle
  heating setpoint default day,           !- Name
  {e9cd5ef6-334d-4d27-988c-e9f057bef594}, !- Schedule Type Limits Name
  ,                                       !- Interpolate to Timestep
  24,                                     !- Hour 1
  0,                                      !- Minute 1
  0;                                      !- Value Until Time 1

OS:Schedule:Rule,
  {e895adc2-c053-4dde-be89-6dcd6a3b94b5}, !- Handle
  heating setpoint allday rule,           !- Name
  {c7765963-b7aa-4b50-810a-cb784e734230}, !- Schedule Ruleset Name
  0,                                      !- Rule Order
  {549c73b8-629c-44b5-a512-d0e835a222d0}, !- Day Schedule Name
  Yes,                                    !- Apply Sunday
  Yes,                                    !- Apply Monday
  Yes,                                    !- Apply Tuesday
  Yes,                                    !- Apply Wednesday
  Yes,                                    !- Apply Thursday
  Yes,                                    !- Apply Friday
  Yes,                                    !- Apply Saturday
  DateRange,                              !- Date Specification Type
  1,                                      !- Start Month
  1,                                      !- Start Day
  12,                                     !- End Month
  31;                                     !- End Day

OS:Schedule:Day,
  {549c73b8-629c-44b5-a512-d0e835a222d0}, !- Handle
  heating setpoint day,                   !- Name
  {e9cd5ef6-334d-4d27-988c-e9f057bef594}, !- Schedule Type Limits Name
  ,                                       !- Interpolate to Timestep
  24,                                     !- Hour 1
  0,                                      !- Minute 1
  20;                                     !- Value Until Time 1

OS:Schedule:Ruleset,
  {05aed9ec-e73e-4ef0-8e78-97b81e20d728}, !- Handle
  cooling setpoint,                       !- Name
  {e9cd5ef6-334d-4d27-988c-e9f057bef594}, !- Schedule Type Limits Name
  {95e35833-1ae3-4759-8e9a-caa50c1d9439}; !- Default Day Schedule Name

OS:Schedule:Day,
  {95e35833-1ae3-4759-8e9a-caa50c1d9439}, !- Handle
  cooling setpoint default day,           !- Name
  {e9cd5ef6-334d-4d27-988c-e9f057bef594}, !- Schedule Type Limits Name
  ,                                       !- Interpolate to Timestep
  24,                                     !- Hour 1
  0,                                      !- Minute 1
  0;                                      !- Value Until Time 1

OS:Schedule:Rule,
  {527eaace-f763-48d4-b41d-67ffad7008f0}, !- Handle
  cooling setpoint allday rule,           !- Name
  {05aed9ec-e73e-4ef0-8e78-97b81e20d728}, !- Schedule Ruleset Name
  0,                                      !- Rule Order
  {b0e9600e-3a32-4821-ac08-8aad04a90813}, !- Day Schedule Name
  Yes,                                    !- Apply Sunday
  Yes,                                    !- Apply Monday
  Yes,                                    !- Apply Tuesday
  Yes,                                    !- Apply Wednesday
  Yes,                                    !- Apply Thursday
  Yes,                                    !- Apply Friday
  Yes,                                    !- Apply Saturday
  DateRange,                              !- Date Specification Type
  1,                                      !- Start Month
  1,                                      !- Start Day
  12,                                     !- End Month
  31;                                     !- End Day

OS:Schedule:Day,
  {b0e9600e-3a32-4821-ac08-8aad04a90813}, !- Handle
  cooling setpoint day,                   !- Name
  {e9cd5ef6-334d-4d27-988c-e9f057bef594}, !- Schedule Type Limits Name
  ,                                       !- Interpolate to Timestep
  24,                                     !- Hour 1
  0,                                      !- Minute 1
  25.5555555555556;                       !- Value Until Time 1

OS:ThermostatSetpoint:DualSetpoint,
  {39572287-da24-43cd-8618-e0cebaadb14d}, !- Handle
  conditioned space temperature setpoint, !- Name
  {c7765963-b7aa-4b50-810a-cb784e734230}, !- Heating Setpoint Temperature Schedule Name
  {05aed9ec-e73e-4ef0-8e78-97b81e20d728}, !- Cooling Setpoint Temperature Schedule Name
  0;                                      !- Temperature Difference Between Cutout And Setpoint {deltaC}

OS:ScheduleTypeLimits,
  {e9cd5ef6-334d-4d27-988c-e9f057bef594}, !- Handle
  Temperature,                            !- Name
  ,                                       !- Lower Limit Value
  ,                                       !- Upper Limit Value
  Continuous,                             !- Numeric Type
  Temperature;                            !- Unit Type

OS:Surface,
  {f9c59def-6e93-43c1-994f-b77757b3a8dc}, !- Handle
  Roof1,                                  !- Name
  RoofCeiling,                            !- Surface Type
  {b4d06dd8-c321-4e9f-a099-578cc17ce500}, !- Construction Name
  {36259c22-cc78-46b3-a930-d4f1545a6783}, !- Space Name
  Outdoors,                               !- Outside Boundary Condition
  ,                                       !- Outside Boundary Condition Object
  SunExposed,                             !- Sun Exposure
  WindExposed,                            !- Wind Exposure
  ,                                       !- View Factor to Ground
  ,                                       !- Number of Vertices
  -26.9347048849634, 58.0557891618865, 2.4384, !- X,Y,Z Vertex 1 {m}
  -26.9347048849634, 46.7895631136661, 8.0715130241102, !- X,Y,Z Vertex 2 {m}
  -14.3386812381136, 46.7895631136661, 8.0715130241102, !- X,Y,Z Vertex 3 {m}
  -14.3386812381136, 58.0557891618865, 2.4384; !- X,Y,Z Vertex 4 {m}

OS:AdditionalProperties,
  {e4e9d2b2-790c-4571-9131-e7a87a06ed84}, !- Handle
  {f9c59def-6e93-43c1-994f-b77757b3a8dc}, !- Object Name
  Length,                                 !- Feature Name 1
  Double,                                 !- Feature Data Type 1
  41.325536899113608,                     !- Feature Value 1
  Width,                                  !- Feature Name 2
  Double,                                 !- Feature Data Type 2
  41.325536899113601,                     !- Feature Value 2
  Azimuth,                                !- Feature Name 3
  Integer,                                !- Feature Data Type 3
  0,                                      !- Feature Value 3
  Tilt,                                   !- Feature Name 4
  Double,                                 !- Feature Data Type 4
  0.5,                                    !- Feature Value 4
  SurfaceType,                            !- Feature Name 5
  String,                                 !- Feature Data Type 5
  Roof;                                   !- Feature Value 5

OS:ThermalZone,
  {d58177f1-d994-4974-9af4-bcb4b6b57c13}, !- Handle
  attic - vented,                         !- Name
  1,                                      !- Multiplier
  ,                                       !- Ceiling Height {m}
  356.390921899745,                       !- Volume {m3}
  ,                                       !- Floor Area {m2}
  ,                                       !- Zone Inside Convection Algorithm
  ,                                       !- Zone Outside Convection Algorithm
  ,                                       !- Zone Conditioning Equipment List Name
  {7620aa4e-927c-4530-9be6-b8ea63f85f6d}, !- Zone Air Inlet Port List
  {0ab85ab2-5906-4cf0-8d23-95c30fbb4a97}, !- Zone Air Exhaust Port List
  {8f7fadb9-0a90-4241-820d-d6a2f925c559}, !- Zone Air Node Name
  {b0c6bdf6-d2fe-4b14-93d1-11d3e839ca7e}, !- Zone Return Air Port List
  ,                                       !- Primary Daylighting Control Name
  ,                                       !- Fraction of Zone Controlled by Primary Daylighting Control
  ,                                       !- Secondary Daylighting Control Name
  ,                                       !- Fraction of Zone Controlled by Secondary Daylighting Control
  ,                                       !- Illuminance Map Name
  ,                                       !- Group Rendering Name
  ,                                       !- Thermostat Name
  No;                                     !- Use Ideal Air Loads

OS:Node,
  {147b41c7-8e59-47bc-b5df-9043be1d7eeb}, !- Handle
  Node 2,                                 !- Name
  {8f7fadb9-0a90-4241-820d-d6a2f925c559}, !- Inlet Port
  ;                                       !- Outlet Port

OS:Connection,
  {8f7fadb9-0a90-4241-820d-d6a2f925c559}, !- Handle
  {d58177f1-d994-4974-9af4-bcb4b6b57c13}, !- Source Object
  11,                                     !- Outlet Port
  {147b41c7-8e59-47bc-b5df-9043be1d7eeb}, !- Target Object
  2;                                      !- Inlet Port

OS:PortList,
  {7620aa4e-927c-4530-9be6-b8ea63f85f6d}, !- Handle
  {d58177f1-d994-4974-9af4-bcb4b6b57c13}; !- HVAC Component

OS:PortList,
  {0ab85ab2-5906-4cf0-8d23-95c30fbb4a97}, !- Handle
  {d58177f1-d994-4974-9af4-bcb4b6b57c13}; !- HVAC Component

OS:PortList,
  {b0c6bdf6-d2fe-4b14-93d1-11d3e839ca7e}, !- Handle
  {d58177f1-d994-4974-9af4-bcb4b6b57c13}; !- HVAC Component

OS:Sizing:Zone,
  {24f532e0-d40c-45f7-88e5-ff0585bc2d40}, !- Handle
  {d58177f1-d994-4974-9af4-bcb4b6b57c13}, !- Zone or ZoneList Name
  SupplyAirTemperature,                   !- Zone Cooling Design Supply Air Temperature Input Method
  14,                                     !- Zone Cooling Design Supply Air Temperature {C}
  11.11,                                  !- Zone Cooling Design Supply Air Temperature Difference {deltaC}
  SupplyAirTemperature,                   !- Zone Heating Design Supply Air Temperature Input Method
  40,                                     !- Zone Heating Design Supply Air Temperature {C}
  11.11,                                  !- Zone Heating Design Supply Air Temperature Difference {deltaC}
  0.0085,                                 !- Zone Cooling Design Supply Air Humidity Ratio {kg-H2O/kg-air}
  0.008,                                  !- Zone Heating Design Supply Air Humidity Ratio {kg-H2O/kg-air}
  ,                                       !- Zone Heating Sizing Factor
  ,                                       !- Zone Cooling Sizing Factor
  DesignDay,                              !- Cooling Design Air Flow Method
  ,                                       !- Cooling Design Air Flow Rate {m3/s}
  ,                                       !- Cooling Minimum Air Flow per Zone Floor Area {m3/s-m2}
  ,                                       !- Cooling Minimum Air Flow {m3/s}
  ,                                       !- Cooling Minimum Air Flow Fraction
  DesignDay,                              !- Heating Design Air Flow Method
  ,                                       !- Heating Design Air Flow Rate {m3/s}
  ,                                       !- Heating Maximum Air Flow per Zone Floor Area {m3/s-m2}
  ,                                       !- Heating Maximum Air Flow {m3/s}
  ,                                       !- Heating Maximum Air Flow Fraction
  No,                                     !- Account for Dedicated Outdoor Air System
  NeutralSupplyAir,                       !- Dedicated Outdoor Air System Control Strategy
  autosize,                               !- Dedicated Outdoor Air Low Setpoint Temperature for Design {C}
  autosize,                               !- Dedicated Outdoor Air High Setpoint Temperature for Design {C}
  Sensible Load Only No Latent Load,      !- Zone Load Sizing Method
  HumidityRatioDifference,                !- Zone Latent Cooling Design Supply Air Humidity Ratio Input Method
  ,                                       !- Zone Dehumidification Design Supply Air Humidity Ratio {kgWater/kgDryAir}
  0.005,                                  !- Zone Cooling Design Supply Air Humidity Ratio Difference {kgWater/kgDryAir}
  HumidityRatioDifference,                !- Zone Latent Heating Design Supply Air Humidity Ratio Input Method
  ,                                       !- Zone Humidification Design Supply Air Humidity Ratio {kgWater/kgDryAir}
  0.005,                                  !- Zone Humidification Design Supply Air Humidity Ratio Difference {kgWater/kgDryAir}
  ,                                       !- Zone Humidistat Dehumidification Set Point Schedule Name
  ,                                       !- Zone Humidistat Humidification Set Point Schedule Name
  ,                                       !- Design Zone Air Distribution Effectiveness in Cooling Mode
  ,                                       !- Design Zone Air Distribution Effectiveness in Heating Mode
  ,                                       !- Design Zone Secondary Recirculation Fraction {dimensionless}
  ,                                       !- Design Minimum Zone Ventilation Efficiency {dimensionless}
  Coincident;                             !- Sizing Option

OS:ZoneHVAC:EquipmentList,
  {bc2a2d57-0793-40f1-8d99-0fb198f1fbea}, !- Handle
  Zone HVAC Equipment List 2,             !- Name
  {d58177f1-d994-4974-9af4-bcb4b6b57c13}; !- Thermal Zone

OS:AdditionalProperties,
  {9d0e5406-469c-4230-b8c0-abd9e27bd783}, !- Handle
  {d58177f1-d994-4974-9af4-bcb4b6b57c13}, !- Object Name
  ObjectType,                             !- Feature Name 1
  String,                                 !- Feature Data Type 1
  attic - vented;                         !- Feature Value 1

OS:Space,
  {36259c22-cc78-46b3-a930-d4f1545a6783}, !- Handle
  attic - vented 1,                       !- Name
  ,                                       !- Space Type Name
  ,                                       !- Default Construction Set Name
  ,                                       !- Default Schedule Set Name
  ,                                       !- Direction of Relative North {deg}
  ,                                       !- X Origin {m}
  ,                                       !- Y Origin {m}
  ,                                       !- Z Origin {m}
  ,                                       !- Building Story Name
  {d58177f1-d994-4974-9af4-bcb4b6b57c13}, !- Thermal Zone Name
  ,                                       !- Part of Total Floor Area
  ,                                       !- Design Specification Outdoor Air Object Name
  ,                                       !- Building Unit Name
  356.390921899745;                       !- Volume {m3}

OS:Material,
  {e044d17b-4078-44bc-81e4-b72d68ae723e}, !- Handle
  asphalt or fiberglass shingles,         !- Name
  Rough,                                  !- Roughness
  0.00635,                                !- Thickness {m}
  0.162714,                               !- Conductivity {W/m-K}
  1121.4,                                 !- Density {kg/m3}
  1465.45,                                !- Specific Heat {J/kg-K}
  0.9,                                    !- Thermal Absorptance
  0.85,                                   !- Solar Absorptance