
OS:Version,
  {150ff9c8-7b08-4602-bfda-015646929d77}, !- Handle
  3.9.0;                                  !- Version Identifier

OS:SimulationControl,
  {d6a07ef8-8f9a-49e3-9ab4-81077ba87c06}, !- Handle
  ,                                       !- Do Zone Sizing Calculation
  ,                                       !- Do System Sizing Calculation
  ,                                       !- Do Plant Sizing Calculation
  No;                                     !- Run Simulation for Sizing Periods

OS:Timestep,
  {89ad5097-4c69-42f3-88a2-e9ec254d6a2e}, !- Handle
  1;                                      !- Number of Timesteps per Hour

OS:ShadowCalculation,
  {b49fbcda-0d07-4922-b759-7b83afa3cff3}, !- Handle
  PolygonClipping,                        !- Shading Calculation Method
  ,                                       !- Shading Calculation Update Frequency Method
  20,                                     !- Shading Calculation Update Frequency
  200,                                    !- Maximum Figures in Shadow Overlap Calculations
  ,                                       !- Polygon Clipping Algorithm
  512,                                    !- Pixel Counting Resolution
  ,                                       !- Sky Diffuse Modeling Algorithm
  No,                                     !- Output External Shading Calculation Results
  No,                                     !- Disable Self-Shading Within Shading Zone Groups
  No;                                     !- Disable Self-Shading From Shading Zone Groups to Other Zones

OS:SurfaceConvectionAlgorithm:Outside,
  {56ce2560-3002-4a5c-b3b9-458336e55ed7}, !- Handle
  DOE-2;                                  !- Algorithm

OS:SurfaceConvectionAlgorithm:Inside,
  {cf20f129-a23f-450a-b0cb-71589d9c825c}, !- Handle
  TARP;                                   !- Algorithm

OS:ZoneCapacitanceMultiplier:ResearchSpecial,
  {f36f8dfe-0cd6-4e6f-8e2f-c2b9b2d40f14}, !- Handle
  7,                                      !- Temperature Capacity Multiplier
  15,                                     !- Humidity Capacity Multiplier
  ;                                       !- Carbon Dioxide Capacity Multiplier

OS:ConvergenceLimits,
  {e155aea2-51fd-4bcc-98aa-993204b19905}, !- Handle
  0;                                      !- Minimum System Timestep {minutes}

OS:RunPeriod,
  {6c3bce63-07b2-4671-95a5-d4008d7c8db3}, !- Handle
  Run Period 1,                           !- Name
  1,                                      !- Begin Month
  1,                                      !- Begin Day of Month
  12,                                     !- End Month
  31,                                     !- End Day of Month
  ,                                       !- Use Weather File Holidays and Special Days
  ,                                       !- Use Weather File Daylight Saving Period
  ,                                       !- Apply Weekend Holiday Rule
  ,                                       !- Use Weather File Rain Indicators
  ,                                       !- Use Weather File Snow Indicators
  ;                                       !- Number of Times Runperiod to be Repeated

OS:PerformancePrecisionTradeoffs,
  {94c1dddc-f8e8-4ba7-bf43-7a166370b31f}, !- Handle
  ,                                       !- Use Coil Direct Solutions
  CarrollMRT;                             !- Zone Radiant Exchange Algorithm

OS:WeatherFile,
  {dafe4506-76d6-484b-851f-34603812c28c}, !- Handle
  Buffalo Niagara Intl Ap,                !- City
  NY,                                     !- State Province Region
  USA,                                    !- Country
  TMY3,                                   !- Data Source
  725280,                                 !- WMO Number
  42.93,                                  !- Latitude {deg}
  -78.73,                                 !- Longitude {deg}
  -5,                                     !- Time Zone {hr}
  215,                                    !- Elevation {m}
  /Users/nmoore/github/urbanopt-example-geojson-project/example_project/weather/USA_NY_Buffalo-Greater.Buffalo.Intl.AP.725280_TMY3.epw, !- Url
  6B50E0FF,                               !- Checksum
  ,                                       !- Start Date Actual Year
  Sunday;                                 !- Start Day of Week

OS:YearDescription,
  {3ec7ae7c-1bac-4454-9468-e965ffc5b230}, !- Handle
  2007,                                   !- Calendar Year
  ,                                       !- Day of Week for Start Day
  ;                                       !- Is Leap Year

OS:Site,
  {6ec772de-4f8d-4bfb-aede-c3799c62ef32}, !- Handle
  Buffalo Niagara Intl Ap_NY,             !- Name
  42.93,                                  !- Latitude {deg}
  -78.73,                                 !- Longitude {deg}
  -5,                                     !- Time Zone {hr}
  215,                                    !- Elevation {m}
  Suburbs,                                !- Terrain
  Yes;                                    !- Keep Site Location Information

OS:RunPeriodControl:DaylightSavingTime,
  {5b207c2c-ec26-4162-b89a-137d9d84ea42}, !- Handle
  Mar 12,                                 !- Start Date
  Nov 5;                                  !- End Date

OS:Site:GroundTemperature:Shallow,
  {97e4b032-7244-4e5e-8580-f94c3d37cbad}, !- Handle
  4.30207395723828,                       !- January Surface Ground Temperature {C}
  2.29327249652502,                       !- February Surface Ground Temperature {C}
  2.13240047156047,                       !- March Surface Ground Temperature {C}
  3.08567940719286,                       !- April Surface Ground Temperature {C}
  6.91256312497526,                       !- May Surface Ground Temperature {C}
  10.7216195949507,                       !- June Surface Ground Temperature {C}
  14.0238679822574,                       !- July Surface Ground Temperature {C}
  16.1157611184724,                       !- August Surface Ground Temperature {C}
  16.2934789303462,                       !- September Surface Ground Temperature {C}
  14.5920754632847,                       !- October Surface Ground Temperature {C}
  11.374036348653,                        !- November Surface Ground Temperature {C}
  7.68182621661674;                       !- December Surface Ground Temperature {C}

OS:ThermalZone,
  {a725120e-0b65-41e3-b80f-be836f73525f}, !- Handle
  conditioned space,                      !- Name
  1,                                      !- Multiplier
  ,                                       !- Ceiling Height {m}
  692.06373070848,                        !- Volume {m3}
  ,                                       !- Floor Area {m2}
  ,                                       !- Zone Inside Convection Algorithm
  ,                                       !- Zone Outside Convection Algorithm
  ,                                       !- Zone Conditioning Equipment List Name
  {b6ffd300-768e-4137-a712-7183d2af20cd}, !- Zone Air Inlet Port List
  {db532d58-9f0f-445f-b528-08b2c079be60}, !- Zone Air Exhaust Port List
  {01f5661b-f05f-4efb-be59-ad9c1d1e9683}, !- Zone Air Node Name
  {141b6784-6e4f-4351-b41e-b204ba644771}, !- Zone Return Air Port List
  ,                                       !- Primary Daylighting Control Name
  ,                                       !- Fraction of Zone Controlled by Primary Daylighting Control
  ,                                       !- Secondary Daylighting Control Name
  ,                                       !- Fraction of Zone Controlled by Secondary Daylighting Control
  ,                                       !- Illuminance Map Name
  ,                                       !- Group Rendering Name
  {9b83dc60-298e-4feb-9f30-db774bc7c94f}, !- Thermostat Name
  No;                                     !- Use Ideal Air Loads

OS:Node,
  {b668d704-b2fc-474a-82cb-7698729bf060}, !- Handle
  Node 1,                                 !- Name
  {01f5661b-f05f-4efb-be59-ad9c1d1e9683}, !- Inlet Port
  ;                                       !- Outlet Port

OS:Connection,
  {01f5661b-f05f-4efb-be59-ad9c1d1e9683}, !- Handle
  {a725120e-0b65-41e3-b80f-be836f73525f}, !- Source Object
  11,                                     !- Outlet Port
  {b668d704-b2fc-474a-82cb-7698729bf060}, !- Target Object
  2;                                      !- Inlet Port

OS:PortList,
  {b6ffd300-768e-4137-a712-7183d2af20cd}, !- Handle
  {a725120e-0b65-41e3-b80f-be836f73525f}, !- HVAC Component
  {123a6dbb-0aba-4482-b02c-5bb70218dbb3}; !- Port 1

OS:PortList,
  {db532d58-9f0f-445f-b528-08b2c079be60}, !- Handle
  {a725120e-0b65-41e3-b80f-be836f73525f}; !- HVAC Component

OS:PortList,
  {141b6784-6e4f-4351-b41e-b204ba644771}, !- Handle
  {a725120e-0b65-41e3-b80f-be836f73525f}, !- HVAC Component
  {ef2c75c2-029a-488a-a062-83c209bf741a}; !- Port 1

OS:Sizing:Zone,
  {ac9dcaa2-9713-48ce-a11c-8b2c0e0cbbcd}, !- Handle
  {a725120e-0b65-41e3-b80f-be836f73525f}, !- Zone or ZoneList Name
  SupplyAirTemperature,                   !- Zone Cooling Design Supply Air Temperature Input Method
  14,                                     !- Zone Cooling Design Supply Air Temperature {C}
  11.11,                                  !- Zone Cooling Design Supply Air Temperature Difference {deltaC}
  SupplyAirTemperature,                   !- Zone Heating Design Supply Air Temperature Input Method
  40,                                     !- Zone Heating Design Supply Air Temperature {C}
  11.11,                                  !- Zone Heating Design Supply Air Temperature Difference {deltaC}
  0.0085,                                 !- Zone Cooling Design Supply Air Humidity Ratio {kg-H2O/kg-air}
  0.008,                                  !- Zone Heating Design Supply Air Humidity Ratio {kg-H2O/kg-air}
  ,                                       !- Zone Heating Sizing Factor
  ,                                       !- Zone Cooling Sizing Factor
  DesignDay,                              !- Cooling Design Air Flow Method
  ,                                       !- Cooling Design Air Flow Rate {m3/s}
  ,                                       !- Cooling Minimum Air Flow per Zone Floor Area {m3/s-m2}
  ,                                       !- Cooling Minimum Air Flow {m3/s}
  ,                                       !- Cooling Minimum Air Flow Fraction
  DesignDay,                              !- Heating Design Air Flow Method
  ,                                       !- Heating Design Air Flow Rate {m3/s}
  ,                                       !- Heating Maximum Air Flow per Zone Floor Area {m3/s-m2}
  ,                                       !- Heating Maximum Air Flow {m3/s}
  ,                                       !- Heating Maximum Air Flow Fraction
  No,                                     !- Account for Dedicated Outdoor Air System
  NeutralSupplyAir,                       !- Dedicated Outdoor Air System Control Strategy
  autosize,                               !- Dedicated Outdoor Air Low Setpoint Temperature for Design {C}
  autosize,                               !- Dedicated Outdoor Air High Setpoint Temperature for Design {C}
  Sensible Load Only No Latent Load,      !- Zone Load Sizing Method
  HumidityRatioDifference,                !- Zone Latent Cooling Design Supply Air Humidity Ratio Input Method
  ,                                       !- Zone Dehumidification Design Supply Air Humidity Ratio {kgWater/kgDryAir}
  0.005,                                  !- Zone Cooling Design Supply Air Humidity Ratio Difference {kgWater/kgDryAir}
  HumidityRatioDifference,                !- Zone Latent Heating Design Supply Air Humidity Ratio Input Method
  ,                                       !- Zone Humidification Design Supply Air Humidity Ratio {kgWater/kgDryAir}
  0.005,                                  !- Zone Humidification Design Supply Air Humidity Ratio Difference {kgWater/kgDryAir}
  ,                                       !- Zone Humidistat Dehumidification Set Point Schedule Name
  ,                                       !- Zone Humidistat Humidification Set Point Schedule Name
  ,                                       !- Design Zone Air Distribution Effectiveness in Cooling Mode
  ,                                       !- Design Zone Air Distribution Effectiveness in Heating Mode
  ,                                       !- Design Zone Secondary Recirculation Fraction {dimensionless}
  ,                                       !- Design Minimum Zone Ventilation Efficiency {dimensionless}
  Coincident;                             !- Sizing Option

OS:ZoneHVAC:EquipmentList,
  {acfb7a3b-27e5-4978-b06f-db4ff53b11b5}, !- Handle
  Zone HVAC Equipment List 1,             !- Name
  {a725120e-0b65-41e3-b80f-be836f73525f}, !- Thermal Zone
  ,                                       !- Load Distribution Scheme
  {e60ad984-aec6-4e0e-ae4c-b294835aec5a}, !- Zone Equipment 1
  1,                                      !- Zone Equipment Cooling Sequence 1
  1,                                      !- Zone Equipment Heating or No-Load Sequence 1
  {27c387db-1ce5-4e14-922f-22e1e1c74eca}, !- Zone Equipment Sequential Cooling Fraction Schedule Name 1
  {7459d3f5-be9b-4fde-a182-0ae9d60a8e4e}; !- Zone Equipment Sequential Heating Fraction Schedule Name 1

OS:AdditionalProperties,
  {14a323dd-fa7c-4aec-9fb6-d83ef2a5eba1}, !- Handle
  {a725120e-0b65-41e3-b80f-be836f73525f}, !- Object Name
  ObjectType,                             !- Feature Name 1
  String,                                 !- Feature Data Type 1
  conditioned space;                      !- Feature Value 1

OS:Space,
  {8d268b58-2009-4e18-9ce9-56d627c154d0}, !- Handle
  conditioned space 1,                    !- Name
  ,                                       !- Space Type Name
  ,                                       !- Default Construction Set Name
  ,                                       !- Default Schedule Set Name
  ,                                       !- Direction of Relative North {deg}
  ,                                       !- X Origin {m}
  ,                                       !- Y Origin {m}
  ,                                       !- Z Origin {m}
  ,                                       !- Building Story Name
  {a725120e-0b65-41e3-b80f-be836f73525f}, !- Thermal Zone Name
  ,                                       !- Part of Total Floor Area
  ,                                       !- Design Specification Outdoor Air Object Name
  ,                                       !- Building Unit Name
  692.06373070848;                        !- Volume {m3}

OS:Schedule:Ruleset,
  {cc058926-788e-4fce-bf61-7610c41090e9}, !- Handle
  heating setpoint,                       !- Name
  {529551f7-8adb-48bb-a915-894e7e46dae7}, !- Schedule Type Limits Name
  {f7ea2b0e-b606-4f2a-ab8e-0a460a57d633}; !- Default Day Schedule Name

OS:Schedule:Day,
  {f7ea2b0e-b606-4f2a-ab8e-0a460a57d633}, !- Handle
  heating setpoint default day,           !- Name
  {529551f7-8adb-48bb-a915-894e7e46dae7}, !- Schedule Type Limits Name
  ,                                       !- Interpolate to Timestep
  24,                                     !- Hour 1
  0,                                      !- Minute 1
  0;                                      !- Value Until Time 1

OS:Schedule:Rule,
  {34000e5c-43b5-4a20-87ae-6e8b52aed4ca}, !- Handle
  heating setpoint allday rule,           !- Name
  {cc058926-788e-4fce-bf61-7610c41090e9}, !- Schedule Ruleset Name
  0,                                      !- Rule Order
  {cdbc07ed-6509-4679-8a80-28e6faf2a3b1}, !- Day Schedule Name
  Yes,                                    !- Apply Sunday
  Yes,                                    !- Apply Monday
  Yes,                                    !- Apply Tuesday
  Yes,                                    !- Apply Wednesday
  Yes,                                    !- Apply Thursday
  Yes,                                    !- Apply Friday
  Yes,                                    !- Apply Saturday
  DateRange,                              !- Date Specification Type
  1,                                      !- Start Month
  1,                                      !- Start Day
  12,                                     !- End Month
  31;                                     !- End Day

OS:Schedule:Day,
  {cdbc07ed-6509-4679-8a80-28e6faf2a3b1}, !- Handle
  heating setpoint day,                   !- Name
  {529551f7-8adb-48bb-a915-894e7e46dae7}, !- Schedule Type Limits Name
  ,                                       !- Interpolate to Timestep
  24,                                     !- Hour 1
  0,                                      !- Minute 1
  20;                                     !- Value Until Time 1

OS:Schedule:Ruleset,
  {c5c6f5d0-fec9-4331-99a5-8d2f503f9597}, !- Handle
  cooling setpoint,                       !- Name
  {529551f7-8adb-48bb-a915-894e7e46dae7}, !- Schedule Type Limits Name
  {76f9c517-902a-4fa3-9be6-be6baa0b29c5}; !- Default Day Schedule Name

OS:Schedule:Day,
  {76f9c517-902a-4fa3-9be6-be6baa0b29c5}, !- Handle
  cooling setpoint default day,           !- Name
  {529551f7-8adb-48bb-a915-894e7e46dae7}, !- Schedule Type Limits Name
  ,                                       !- Interpolate to Timestep
  24,                                     !- Hour 1
  0,                                      !- Minute 1
  0;                                      !- Value Until Time 1

OS:Schedule:Rule,
  {89de0834-bb87-41a7-b582-a145c200c0fe}, !- Handle
  cooling setpoint allday rule,           !- Name
  {c5c6f5d0-fec9-4331-99a5-8d2f503f9597}, !- Schedule Ruleset Name
  0,                                      !- Rule Order
  {25af47d7-3779-4f70-a457-bc6b10f0fe6f}, !- Day Schedule Name
  Yes,                                    !- Apply Sunday
  Yes,                                    !- Apply Monday
  Yes,                                    !- Apply Tuesday
  Yes,                                    !- Apply Wednesday
  Yes,                                    !- Apply Thursday
  Yes,                                    !- Apply Friday
  Yes,                                    !- Apply Saturday
  DateRange,                              !- Date Specification Type
  1,                                      !- Start Month
  1,                                      !- Start Day
  12,                                     !- End Month
  31;                                     !- End Day

OS:Schedule:Day,
  {25af47d7-3779-4f70-a457-bc6b10f0fe6f}, !- Handle
  cooling setpoint day,                   !- Name
  {529551f7-8adb-48bb-a915-894e7e46dae7}, !- Schedule Type Limits Name
  ,                                       !- Interpolate to Timestep
  24,                                     !- Hour 1
  0,                                      !- Minute 1
  25.5555555555556;                       !- Value Until Time 1

OS:ThermostatSetpoint:DualSetpoint,
  {9b83dc60-298e-4feb-9f30-db774bc7c94f}, !- Handle
  conditioned space temperature setpoint, !- Name
  {cc058926-788e-4fce-bf61-7610c41090e9}, !- Heating Setpoint Temperature Schedule Name
  {c5c6f5d0-fec9-4331-99a5-8d2f503f9597}, !- Cooling Setpoint Temperature Schedule Name
  0;                                      !- Temperature Difference Between Cutout And Setpoint {deltaC}

OS:ScheduleTypeLimits,
  {529551f7-8adb-48bb-a915-894e7e46dae7}, !- Handle
  Temperature,                            !- Name
  ,                                       !- Lower Limit Value
  ,                                       !- Upper Limit Value
  Continuous,                             !- Numeric Type
  Temperature;                            !- Unit Type

OS:Surface,
  {f7e4fe66-de4e-487d-9865-565aef7821b7}, !- Handle
  Roof1,                                  !- Name
  RoofCeiling,                            !- Surface Type
  {f8ab8a58-f976-4a67-955e-343b07ad2ce0}, !- Construction Name
  {67570c27-f962-4a12-9285-0158b149703c}, !- Space Name
  Outdoors,                               !- Outside Boundary Condition
  ,                                       !- Outside Boundary Condition Object
  SunExposed,                             !- Sun Exposure
  WindExposed,                            !- Wind Exposure
  ,                                       !- View Factor to Ground
  ,                                       !- Number of Vertices
  -26.9347048849634, 58.0557891618865, 2.4384, !- X,Y,Z Vertex 1 {m}
  -26.9347048849634, 46.7895631136661, 8.0715130241102, !- X,Y,Z Vertex 2 {m}
  -14.3386812381136, 46.7895631136661, 8.0715130241102, !- X,Y,Z Vertex 3 {m}
  -14.3386812381136, 58.0557891618865, 2.4384; !- X,Y,Z Vertex 4 {m}

OS:AdditionalProperties,
  {6c05b04c-4784-4922-ac34-a7809036f5a7}, !- Handle
  {f7e4fe66-de4e-487d-9865-565aef7821b7}, !- Object Name
  Length,                                 !- Feature Name 1
  Double,                                 !- Feature Data Type 1
  41.325536899113608,                     !- Feature Value 1
  Width,                                  !- Feature Name 2
  Double,                                 !- Feature Data Type 2
  41.325536899113601,                     !- Feature Value 2
  Azimuth,                                !- Feature Name 3
  Integer,                                !- Feature Data Type 3
  0,                                      !- Feature Value 3
  Tilt,                                   !- Feature Name 4
  Double,                                 !- Feature Data Type 4
  0.5,                                    !- Feature Value 4
  SurfaceType,                            !- Feature Name 5
  String,                                 !- Feature Data Type 5
  Roof;                                   !- Feature Value 5

OS:ThermalZone,
  {1422c8e6-fcf8-4201-b2d1-30a0b159da3f}, !- Handle
  attic - vented,                         !- Name
  1,                                      !- Multiplier
  ,                                       !- Ceiling Height {m}
  356.389957095237,                       !- Volume {m3}
  ,                                       !- Floor Area {m2}
  ,                                       !- Zone Inside Convection Algorithm
  ,                                       !- Zone Outside Convection Algorithm
  ,                                       !- Zone Conditioning Equipment List Name
  {0e799d07-66f7-4951-b98e-8624525167e3}, !- Zone Air Inlet Port List
  {fb8e4fe1-2df0-4963-948f-596eb9b1cd0e}, !- Zone Air Exhaust Port List
  {6393142f-c1d7-4dc5-90fd-649c07f96be7}, !- Zone Air Node Name
  {4513841e-01e6-491e-affd-b0f5be0e0729}, !- Zone Return Air Port List
  ,                                       !- Primary Daylighting Control Name
  ,                                       !- Fraction of Zone Controlled by Primary Daylighting Control
  ,                                       !- Secondary Daylighting Control Name
  ,                                       !- Fraction of Zone Controlled by Secondary Daylighting Control
  ,                                       !- Illuminance Map Name
  ,                                       !- Group Rendering Name
  ,                                       !- Thermostat Name
  No;                                     !- Use Ideal Air Loads

OS:Node,
  {56b7ec4b-bd52-41c7-a720-b7d3279c0012}, !- Handle
  Node 2,                                 !- Name
  {6393142f-c1d7-4dc5-90fd-649c07f96be7}, !- Inlet Port
  ;                                       !- Outlet Port

OS:Connection,
  {6393142f-c1d7-4dc5-90fd-649c07f96be7}, !- Handle
  {1422c8e6-fcf8-4201-b2d1-30a0b159da3f}, !- Source Object
  11,                                     !- Outlet Port
  {56b7ec4b-bd52-41c7-a720-b7d3279c0012}, !- Target Object
  2;                                      !- Inlet Port

OS:PortList,
  {0e799d07-66f7-4951-b98e-8624525167e3}, !- Handle
  {1422c8e6-fcf8-4201-b2d1-30a0b159da3f}; !- HVAC Component

OS:PortList,
  {fb8e4fe1-2df0-4963-948f-596eb9b1cd0e}, !- Handle
  {1422c8e6-fcf8-4201-b2d1-30a0b159da3f}; !- HVAC Component

OS:PortList,
  {4513841e-01e6-491e-affd-b0f5be0e0729}, !- Handle
  {1422c8e6-fcf8-4201-b2d1-30a0b159da3f}; !- HVAC Component

OS:Sizing:Zone,
  {c8b63f3a-978a-4b4d-8530-94b04f74b6cc}, !- Handle
  {1422c8e6-fcf8-4201-b2d1-30a0b159da3f}, !- Zone or ZoneList Name
  SupplyAirTemperature,                   !- Zone Cooling Design Supply Air Temperature Input Method
  14,                                     !- Zone Cooling Design Supply Air Temperature {C}
  11.11,                                  !- Zone Cooling Design Supply Air Temperature Difference {deltaC}
  SupplyAirTemperature,                   !- Zone Heating Design Supply Air Temperature Input Method
  40,                                     !- Zone Heating Design Supply Air Temperature {C}
  11.11,                                  !- Zone Heating Design Supply Air Temperature Difference {deltaC}
  0.0085,                                 !- Zone Cooling Design Supply Air Humidity Ratio {kg-H2O/kg-air}
  0.008,                                  !- Zone Heating Design Supply Air Humidity Ratio {kg-H2O/kg-air}
  ,                                       !- Zone Heating Sizing Factor
  ,                                       !- Zone Cooling Sizing Factor
  DesignDay,                              !- Cooling Design Air Flow Method
  ,                                       !- Cooling Design Air Flow Rate {m3/s}
  ,                                       !- Cooling Minimum Air Flow per Zone Floor Area {m3/s-m2}
  ,                                       !- Cooling Minimum Air Flow {m3/s}
  ,                                       !- Cooling Minimum Air Flow Fraction
  DesignDay,                              !- Heating Design Air Flow Method
  ,                                       !- Heating Design Air Flow Rate {m3/s}
  ,                                       !- Heating Maximum Air Flow per Zone Floor Area {m3/s-m2}
  ,                                       !- Heating Maximum Air Flow {m3/s}
  ,                                       !- Heating Maximum Air Flow Fraction
  No,                                     !- Account for Dedicated Outdoor Air System
  NeutralSupplyAir,                       !- Dedicated Outdoor Air System Control Strategy
  autosize,                               !- Dedicated Outdoor Air Low Setpoint Temperature for Design {C}
  autosize,                               !- Dedicated Outdoor Air High Setpoint Temperature for Design {C}
  Sensible Load Only No Latent Load,      !- Zone Load Sizing Method
  HumidityRatioDifference,                !- Zone Latent Cooling Design Supply Air Humidity Ratio Input Method
  ,                                       !- Zone Dehumidification Design Supply Air Humidity Ratio {kgWater/kgDryAir}
  0.005,                                  !- Zone Cooling Design Supply Air Humidity Ratio Difference {kgWater/kgDryAir}
  HumidityRatioDifference,                !- Zone Latent Heating Design Supply Air Humidity Ratio Input Method
  ,                                       !- Zone Humidification Design Supply Air Humidity Ratio {kgWater/kgDryAir}
  0.005,                                  !- Zone Humidification Design Supply Air Humidity Ratio Difference {kgWater/kgDryAir}
  ,                                       !- Zone Humidistat Dehumidification Set Point Schedule Name
  ,                                       !- Zone Humidistat Humidification Set Point Schedule Name
  ,                                       !- Design Zone Air Distribution Effectiveness in Cooling Mode
  ,                                       !- Design Zone Air Distribution Effectiveness in Heating Mode
  ,                                       !- Design Zone Secondary Recirculation Fraction {dimensionless}
  ,                                       !- Design Minimum Zone Ventilation Efficiency {dimensionless}
  Coincident;                             !- Sizing Option

OS:ZoneHVAC:EquipmentList,
  {58b0dce8-6b2e-454e-9786-575c9d8becd4}, !- Handle
  Zone HVAC Equipment List 2,             !- Name
  {1422c8e6-fcf8-4201-b2d1-30a0b159da3f}; !- Thermal Zone

OS:AdditionalProperties,
  {4c634b64-5ae2-49e9-97e3-c54cc1f7240b}, !- Handle
  {1422c8e6-fcf8-4201-b2d1-30a0b159da3f}, !- Object Name
  ObjectType,                             !- Feature Name 1
  String,                                 !- Feature Data Type 1
  attic - vented;                         !- Feature Value 1

OS:Space,
  {67570c27-f962-4a12-9285-0158b149703c}, !- Handle
  attic - vented 1,                       !- Name
  ,                                       !- Space Type Name
  ,                                       !- Default Construction Set Name
  ,                                       !- Default Schedule Set Name
  ,                                       !- Direction of Relative North {deg}
  ,                                       !- X Origin {m}
  ,                                       !- Y Origin {m}
  ,                                       !- Z Origin {m}
  ,                                       !- Building Story Name
  {1422c8e6-fcf8-4201-b2d1-30a0b159da3f}, !- Thermal Zone Name
  ,                                       !- Part of Total Floor Area
  ,                                       !- Design Specification Outdoor Air Object Name
  ,                                       !- Building Unit Name
  356.389957095237;                       !- Volume {m3}

OS:Material,
  {5bec47c9-b188-49f7-8cea-f640e2f434b0}, !- Handle
  asphalt or fiberglass shingles,         !- Name
  Rough,                                  !- Roughness
  0.00635,                                !- Thickness {m}
  0.162714,                               !- Conductivity {W/m-K}
  1121.4,                                 !- Density {kg/m3}
  1465.45,                                !- Specific Heat {J/kg-K}
  0.9,                                    !- Thermal Absorptance
  0.85,                                   !- Solar Absorptance