
OS:Version,
  {27e5accd-3457-414e-b7f0-dd108136cb4c}, !- Handle
  3.10.0;                                 !- Version Identifier

OS:SimulationControl,
  {0393d9bc-8a18-4c9a-9ea4-a57ebc0aebac}, !- Handle
  ,                                       !- Do Zone Sizing Calculation
  ,                                       !- Do System Sizing Calculation
  ,                                       !- Do Plant Sizing Calculation
  No;                                     !- Run Simulation for Sizing Periods

OS:Timestep,
  {0c4c931e-54d5-4650-bf69-063b11286b64}, !- Handle
  1;                                      !- Number of Timesteps per Hour

OS:ShadowCalculation,
  {ec5ae66c-f06c-4110-9bc9-a31214862365}, !- Handle
  PolygonClipping,                        !- Shading Calculation Method
  ,                                       !- Shading Calculation Update Frequency Method
  20,                                     !- Shading Calculation Update Frequency
  200,                                    !- Maximum Figures in Shadow Overlap Calculations
  ,                                       !- Polygon Clipping Algorithm
  512,                                    !- Pixel Counting Resolution
  ,                                       !- Sky Diffuse Modeling Algorithm
  No,                                     !- Output External Shading Calculation Results
  No,                                     !- Disable Self-Shading Within Shading Zone Groups
  No;                                     !- Disable Self-Shading From Shading Zone Groups to Other Zones

OS:SurfaceConvectionAlgorithm:Outside,
  {ade6d8e6-daa5-4a61-b854-4b049bf9b570}, !- Handle
  DOE-2;                                  !- Algorithm

OS:SurfaceConvectionAlgorithm:Inside,
  {fc150b2f-104d-4637-ac5e-5f9a12047759}, !- Handle
  TARP;                                   !- Algorithm

OS:ZoneCapacitanceMultiplier:ResearchSpecial,
  {a7284868-d3fd-4c6b-96e7-a0ef2489ec9e}, !- Handle
  7,                                      !- Temperature Capacity Multiplier
  15,                                     !- Humidity Capacity Multiplier
  ;                                       !- Carbon Dioxide Capacity Multiplier

OS:ConvergenceLimits,
  {1b35f1d6-067b-4a5e-b6b3-775cac5c88cb}, !- Handle
  0;                                      !- Minimum System Timestep {minutes}

OS:RunPeriod,
  {55506485-d10d-4bb8-94fe-8c94a265c381}, !- Handle
  Run Period 1,                           !- Name
  1,                                      !- Begin Month
  1,                                      !- Begin Day of Month
  12,                                     !- End Month
  31,                                     !- End Day of Month
  ,                                       !- Use Weather File Holidays and Special Days
  ,                                       !- Use Weather File Daylight Saving Period
  ,                                       !- Apply Weekend Holiday Rule
  ,                                       !- Use Weather File Rain Indicators
  ,                                       !- Use Weather File Snow Indicators
  ;                                       !- Number of Times Runperiod to be Repeated

OS:PerformancePrecisionTradeoffs,
  {f6b433bc-358c-43a4-b7dd-2d9ee446e89d}, !- Handle
  ,                                       !- Use Coil Direct Solutions
  CarrollMRT;                             !- Zone Radiant Exchange Algorithm

OS:WeatherFile,
  {65231fa0-29b2-408e-81d3-497f08684154}, !- Handle
  Buffalo Niagara Intl Ap,                !- City
  NY,                                     !- State Province Region
  USA,                                    !- Country
  TMY3,                                   !- Data Source
  725280,                                 !- WMO Number
  42.93,                                  !- Latitude {deg}
  -78.73,                                 !- Longitude {deg}
  -5,                                     !- Time Zone {hr}
  215,                                    !- Elevation {m}
  /Users/nmoore/github/urbanopt-example-geojson-project/example_project/weather/USA_NY_Buffalo-Greater.Buffalo.Intl.AP.725280_TMY3.epw, !- Url
  6B50E0FF,                               !- Checksum
  ,                                       !- Start Date Actual Year
  Sunday;                                 !- Start Day of Week

OS:YearDescription,
  {86b9c041-9076-4dac-82a7-4f7f154e37f4}, !- Handle
  2007,                                   !- Calendar Year
  ,                                       !- Day of Week for Start Day
  ;                                       !- Is Leap Year

OS:Site,
  {a60467d5-778d-4872-a6e2-3a0c3583e48a}, !- Handle
  Buffalo Niagara Intl Ap_NY,             !- Name
  42.93,                                  !- Latitude {deg}
  -78.73,                                 !- Longitude {deg}
  -5,                                     !- Time Zone {hr}
  215,                                    !- Elevation {m}
  Suburbs,                                !- Terrain
  Yes;                                    !- Keep Site Location Information

OS:RunPeriodControl:DaylightSavingTime,
  {1a0837a1-59e9-4ade-8c7e-de72132cfe92}, !- Handle
  Mar 12,                                 !- Start Date
  Nov 5;                                  !- End Date

OS:Site:GroundTemperature:Shallow,
  {5859baa1-64e0-438b-8efc-9e4bf8beddec}, !- Handle
  4.30207395723828,                       !- January Surface Ground Temperature {C}
  2.29327249652502,                       !- February Surface Ground Temperature {C}
  2.13240047156047,                       !- March Surface Ground Temperature {C}
  3.08567940719286,                       !- April Surface Ground Temperature {C}
  6.91256312497526,                       !- May Surface Ground Temperature {C}
  10.7216195949507,                       !- June Surface Ground Temperature {C}
  14.0238679822574,                       !- July Surface Ground Temperature {C}
  16.1157611184724,                       !- August Surface Ground Temperature {C}
  16.2934789303462,                       !- September Surface Ground Temperature {C}
  14.5920754632847,                       !- October Surface Ground Temperature {C}
  11.374036348653,                        !- November Surface Ground Temperature {C}
  7.68182621661674;                       !- December Surface Ground Temperature {C}

OS:ThermalZone,
  {c6d7fd97-4b24-4eef-9df8-2194d583c796}, !- Handle
  conditioned space,                      !- Name
  1,                                      !- Multiplier
  ,                                       !- Ceiling Height {m}
  346.03186535424,                        !- Volume {m3}
  ,                                       !- Floor Area {m2}
  ,                                       !- Zone Inside Convection Algorithm
  ,                                       !- Zone Outside Convection Algorithm
  ,                                       !- Zone Conditioning Equipment List Name
  {3472c6a9-e62c-4148-ac28-a2455c48dd96}, !- Zone Air Inlet Port List
  {5d908354-c981-436d-bdb1-f180fb1d9b99}, !- Zone Air Exhaust Port List
  {e5c21303-1c4d-4b7c-b5da-3d341e0261f0}, !- Zone Air Node Name
  {4741e1f9-8619-4805-987e-0c08f6915849}, !- Zone Return Air Port List
  ,                                       !- Primary Daylighting Control Name
  ,                                       !- Fraction of Zone Controlled by Primary Daylighting Control
  ,                                       !- Secondary Daylighting Control Name
  ,                                       !- Fraction of Zone Controlled by Secondary Daylighting Control
  ,                                       !- Illuminance Map Name
  ,                                       !- Group Rendering Name
  {dc290a29-3364-4582-829f-b91d677e96ae}, !- Thermostat Name
  No;                                     !- Use Ideal Air Loads

OS:Node,
  {d883f09b-b32e-4cef-9575-9f84bf53e3f4}, !- Handle
  Node 1,                                 !- Name
  {e5c21303-1c4d-4b7c-b5da-3d341e0261f0}, !- Inlet Port
  ;                                       !- Outlet Port

OS:Connection,
  {e5c21303-1c4d-4b7c-b5da-3d341e0261f0}, !- Handle
  {c6d7fd97-4b24-4eef-9df8-2194d583c796}, !- Source Object
  11,                                     !- Outlet Port
  {d883f09b-b32e-4cef-9575-9f84bf53e3f4}, !- Target Object
  2;                                      !- Inlet Port

OS:PortList,
  {3472c6a9-e62c-4148-ac28-a2455c48dd96}, !- Handle
  {c6d7fd97-4b24-4eef-9df8-2194d583c796}, !- HVAC Component
  {aa2515e5-79b0-4bab-bd52-67aba58b1805}; !- Port 1

OS:PortList,
  {5d908354-c981-436d-bdb1-f180fb1d9b99}, !- Handle
  {c6d7fd97-4b24-4eef-9df8-2194d583c796}; !- HVAC Component

OS:PortList,
  {4741e1f9-8619-4805-987e-0c08f6915849}, !- Handle
  {c6d7fd97-4b24-4eef-9df8-2194d583c796}, !- HVAC Component
  {08b56cf8-5296-4abc-9fbf-c266b56e1318}; !- Port 1

OS:Sizing:Zone,
  {c44f77e5-6a0f-44f8-bde8-c05ce099be20}, !- Handle
  {c6d7fd97-4b24-4eef-9df8-2194d583c796}, !- Zone or ZoneList Name
  SupplyAirTemperature,                   !- Zone Cooling Design Supply Air Temperature Input Method
  14,                                     !- Zone Cooling Design Supply Air Temperature {C}
  11.11,                                  !- Zone Cooling Design Supply Air Temperature Difference {deltaC}
  SupplyAirTemperature,                   !- Zone Heating Design Supply Air Temperature Input Method
  40,                                     !- Zone Heating Design Supply Air Temperature {C}
  11.11,                                  !- Zone Heating Design Supply Air Temperature Difference {deltaC}
  0.0085,                                 !- Zone Cooling Design Supply Air Humidity Ratio {kg-H2O/kg-air}
  0.008,                                  !- Zone Heating Design Supply Air Humidity Ratio {kg-H2O/kg-air}
  ,                                       !- Zone Heating Sizing Factor
  ,                                       !- Zone Cooling Sizing Factor
  DesignDay,                              !- Cooling Design Air Flow Method
  ,                                       !- Cooling Design Air Flow Rate {m3/s}
  ,                                       !- Cooling Minimum Air Flow per Zone Floor Area {m3/s-m2}
  ,                                       !- Cooling Minimum Air Flow {m3/s}
  ,                                       !- Cooling Minimum Air Flow Fraction
  DesignDay,                              !- Heating Design Air Flow Method
  ,                                       !- Heating Design Air Flow Rate {m3/s}
  ,                                       !- Heating Maximum Air Flow per Zone Floor Area {m3/s-m2}
  ,                                       !- Heating Maximum Air Flow {m3/s}
  ,                                       !- Heating Maximum Air Flow Fraction
  No,                                     !- Account for Dedicated Outdoor Air System
  NeutralSupplyAir,                       !- Dedicated Outdoor Air System Control Strategy
  autosize,                               !- Dedicated Outdoor Air Low Setpoint Temperature for Design {C}
  autosize,                               !- Dedicated Outdoor Air High Setpoint Temperature for Design {C}
  Sensible Load Only No Latent Load,      !- Zone Load Sizing Method
  HumidityRatioDifference,                !- Zone Latent Cooling Design Supply Air Humidity Ratio Input Method
  ,                                       !- Zone Dehumidification Design Supply Air Humidity Ratio {kgWater/kgDryAir}
  0.005,                                  !- Zone Cooling Design Supply Air Humidity Ratio Difference {kgWater/kgDryAir}
  HumidityRatioDifference,                !- Zone Latent Heating Design Supply Air Humidity Ratio Input Method
  ,                                       !- Zone Humidification Design Supply Air Humidity Ratio {kgWater/kgDryAir}
  0.005,                                  !- Zone Humidification Design Supply Air Humidity Ratio Difference {kgWater/kgDryAir}
  ,                                       !- Zone Humidistat Dehumidification Set Point Schedule Name
  ,                                       !- Zone Humidistat Humidification Set Point Schedule Name
  ,                                       !- Design Zone Air Distribution Effectiveness in Cooling Mode
  ,                                       !- Design Zone Air Distribution Effectiveness in Heating Mode
  ,                                       !- Design Zone Secondary Recirculation Fraction {dimensionless}
  ,                                       !- Design Minimum Zone Ventilation Efficiency {dimensionless}
  Coincident;                             !- Sizing Option

OS:ZoneHVAC:EquipmentList,
  {5a4c99c9-9082-46c5-ac63-50168c8fb75f}, !- Handle
  Zone HVAC Equipment List 1,             !- Name
  {c6d7fd97-4b24-4eef-9df8-2194d583c796}, !- Thermal Zone
  ,                                       !- Load Distribution Scheme
  {d9bd5dc3-93be-4f29-9284-63119bf4f075}, !- Zone Equipment 1
  1,                                      !- Zone Equipment Cooling Sequence 1
  1,                                      !- Zone Equipment Heating or No-Load Sequence 1
  {4d22a806-bcae-4374-9582-b9ee0cebfa71}, !- Zone Equipment Sequential Cooling Fraction Schedule Name 1
  {4ea973d2-a229-4117-94fb-879dcd922600}; !- Zone Equipment Sequential Heating Fraction Schedule Name 1

OS:AdditionalProperties,
  {718e08f0-6e89-4d3c-ab66-9779f66c6044}, !- Handle
  {c6d7fd97-4b24-4eef-9df8-2194d583c796}, !- Object Name
  ObjectType,                             !- Feature Name 1
  String,                                 !- Feature Data Type 1
  conditioned space;                      !- Feature Value 1

OS:Space,
  {00cc5b12-58c6-4aa8-88f8-ccad2a439b89}, !- Handle
  conditioned space 1,                    !- Name
  ,                                       !- Space Type Name
  ,                                       !- Default Construction Set Name
  ,                                       !- Default Schedule Set Name
  ,                                       !- Direction of Relative North {deg}
  ,                                       !- X Origin {m}
  ,                                       !- Y Origin {m}
  ,                                       !- Z Origin {m}
  ,                                       !- Building Story Name
  {c6d7fd97-4b24-4eef-9df8-2194d583c796}, !- Thermal Zone Name
  ,                                       !- Part of Total Floor Area
  ,                                       !- Design Specification Outdoor Air Object Name
  ,                                       !- Building Unit Name
  346.03186535424;                        !- Volume {m3}

OS:Schedule:Ruleset,
  {37743bc7-b14a-42cb-a589-dbf531146bbf}, !- Handle
  heating setpoint,                       !- Name
  {c65805f2-2242-43a0-ba15-1b6b76d1d0bd}, !- Schedule Type Limits Name
  {f8332292-8c4a-412c-a344-d4dd70c716c7}; !- Default Day Schedule Name

OS:Schedule:Day,
  {f8332292-8c4a-412c-a344-d4dd70c716c7}, !- Handle
  heating setpoint default day,           !- Name
  {c65805f2-2242-43a0-ba15-1b6b76d1d0bd}, !- Schedule Type Limits Name
  ,                                       !- Interpolate to Timestep
  24,                                     !- Hour 1
  0,                                      !- Minute 1
  0;                                      !- Value Until Time 1

OS:Schedule:Rule,
  {c788ba2a-8df2-4976-8fe7-eabbf9452ba7}, !- Handle
  heating setpoint allday rule,           !- Name
  {37743bc7-b14a-42cb-a589-dbf531146bbf}, !- Schedule Ruleset Name
  0,                                      !- Rule Order
  {ea852b8d-104e-4a5f-82d4-609e74e8fee8}, !- Day Schedule Name
  Yes,                                    !- Apply Sunday
  Yes,                                    !- Apply Monday
  Yes,                                    !- Apply Tuesday
  Yes,                                    !- Apply Wednesday
  Yes,                                    !- Apply Thursday
  Yes,                                    !- Apply Friday
  Yes,                                    !- Apply Saturday
  DateRange,                              !- Date Specification Type
  1,                                      !- Start Month
  1,                                      !- Start Day
  12,                                     !- End Month
  31;                                     !- End Day

OS:Schedule:Day,
  {ea852b8d-104e-4a5f-82d4-609e74e8fee8}, !- Handle
  heating setpoint day,                   !- Name
  {c65805f2-2242-43a0-ba15-1b6b76d1d0bd}, !- Schedule Type Limits Name
  ,                                       !- Interpolate to Timestep
  24,                                     !- Hour 1
  0,                                      !- Minute 1
  20;                                     !- Value Until Time 1

OS:Schedule:Ruleset,
  {f2b04f90-d14c-4c60-a6e6-9638318d006d}, !- Handle
  cooling setpoint,                       !- Name
  {c65805f2-2242-43a0-ba15-1b6b76d1d0bd}, !- Schedule Type Limits Name
  {a382ce8e-3be5-43c5-b2a5-35cfbd14bebe}; !- Default Day Schedule Name

OS:Schedule:Day,
  {a382ce8e-3be5-43c5-b2a5-35cfbd14bebe}, !- Handle
  cooling setpoint default day,           !- Name
  {c65805f2-2242-43a0-ba15-1b6b76d1d0bd}, !- Schedule Type Limits Name
  ,                                       !- Interpolate to Timestep
  24,                                     !- Hour 1
  0,                                      !- Minute 1
  0;                                      !- Value Until Time 1

OS:Schedule:Rule,
  {60d70826-949b-462a-8dbf-96e72b392dfa}, !- Handle
  cooling setpoint allday rule,           !- Name
  {f2b04f90-d14c-4c60-a6e6-9638318d006d}, !- Schedule Ruleset Name
  0,                                      !- Rule Order
  {3fb9e3ab-1408-40fd-a895-1a1a57ef6067}, !- Day Schedule Name
  Yes,                                    !- Apply Sunday
  Yes,                                    !- Apply Monday
  Yes,                                    !- Apply Tuesday
  Yes,                                    !- Apply Wednesday
  Yes,                                    !- Apply Thursday
  Yes,                                    !- Apply Friday
  Yes,                                    !- Apply Saturday
  DateRange,                              !- Date Specification Type
  1,                                      !- Start Month
  1,                                      !- Start Day
  12,                                     !- End Month
  31;                                     !- End Day

OS:Schedule:Day,
  {3fb9e3ab-1408-40fd-a895-1a1a57ef6067}, !- Handle
  cooling setpoint day,                   !- Name
  {c65805f2-2242-43a0-ba15-1b6b76d1d0bd}, !- Schedule Type Limits Name
  ,                                       !- Interpolate to Timestep
  24,                                     !- Hour 1
  0,                                      !- Minute 1
  25.5555555555556;                       !- Value Until Time 1

OS:ThermostatSetpoint:DualSetpoint,
  {dc290a29-3364-4582-829f-b91d677e96ae}, !- Handle
  conditioned space temperature setpoint, !- Name
  {37743bc7-b14a-42cb-a589-dbf531146bbf}, !- Heating Setpoint Temperature Schedule Name
  {f2b04f90-d14c-4c60-a6e6-9638318d006d}, !- Cooling Setpoint Temperature Schedule Name
  0;                                      !- Temperature Difference Between Cutout And Setpoint {deltaC}

OS:ScheduleTypeLimits,
  {c65805f2-2242-43a0-ba15-1b6b76d1d0bd}, !- Handle
  Temperature,                            !- Name
  ,                                       !- Lower Limit Value
  ,                                       !- Upper Limit Value
  Continuous,                             !- Numeric Type
  Temperature;                            !- Unit Type

OS:Surface,
  {222f5e3f-ea30-4fc9-abcb-7251816d5a13}, !- Handle
  Roof1,                                  !- Name
  RoofCeiling,                            !- Surface Type
  {67307f6a-f774-4008-baee-dc90ac2a007d}, !- Construction Name
  {00cc5b12-58c6-4aa8-88f8-ccad2a439b89}, !- Space Name
  Outdoors,                               !- Outside Boundary Condition
  ,                                       !- Outside Boundary Condition Object
  SunExposed,                             !- Sun Exposure
  WindExposed,                            !- Wind Exposure
  ,                                       !- View Factor to Ground
  ,                                       !- Number of Vertices
  -0.687372254093932, 8.21936148257969, 3.048, !- X,Y,Z Vertex 1 {m}
  -0.687372254093932, 0.252936645502524, 7.03121241853859, !- X,Y,Z Vertex 2 {m}
  8.21936148257969, 0.252936645502514, 7.03121241853859, !- X,Y,Z Vertex 3 {m}
  8.21936148257969, 8.21936148257968, 3.048; !- X,Y,Z Vertex 4 {m}

OS:AdditionalProperties,
  {d225a6ec-3a0b-446e-8d49-e2f6c1d090d2}, !- Handle
  {222f5e3f-ea30-4fc9-abcb-7251816d5a13}, !- Object Name
  Length,                                 !- Feature Name 1
  Double,                                 !- Feature Data Type 1
  29.221567377538118,                     !- Feature Value 1
  Width,                                  !- Feature Name 2
  Double,                                 !- Feature Data Type 2
  29.221567377538118,                     !- Feature Value 2
  Azimuth,                                !- Feature Name 3
  Integer,                                !- Feature Data Type 3
  0,                                      !- Feature Value 3
  Tilt,                                   !- Feature Name 4
  Double,                                 !- Feature Data Type 4
  0.5,                                    !- Feature Value 4
  SurfaceType,                            !- Feature Name 5
  String,                                 !- Feature Data Type 5
  Roof;                                   !- Feature Value 5

OS:Material,
  {593649ab-e08e-437e-9d67-d3e7b2a5e19a}, !- Handle
  asphalt or fiberglass shingles,         !- Name
  Rough,                                  !- Roughness
  0.00635,                                !- Thickness {m}
  0.162714,                               !- Conductivity {W/m-K}
  1121.4,                                 !- Density {kg/m3}
  1465.45,                                !- Specific Heat {J/kg-K}
  0.9,                                    !- Thermal Absorptance
  0.85,                                   !- Solar Absorptance
  0.85;                                   !- Visible Absorptance

OS:Material,
  {59533971-4a47-4606-995b-04d2c0dd24f5}, !- Handle
  roof stud and cavity,                   !- Name
  Rough,                                  !- Roughness
  0.0889,                                 !- Thickness {m}
  0.468249472857624,                      !- Conductivity {W/m-K}
  50.32683,                               !- Density {kg/m3}
  1063.80987585548,                       !- Specific Heat {J/kg-K}
  0.9,                                    !- Thermal Absorptance
  0.7,                                    !- Solar Absorptance
  0.7;                                    !- Visible Absorptance

OS:Material,
  {feb30981-1af4-45c1-acc0-ab7b6ea41318}, !- Handle
  gypsum board,                           !- Name
  Rough,                                  !- Roughness
  0.00254,                                !- Thickness {m}
  0.1602906,                              !- Conductivity {W/m-K}
  801,                                    !- Density {kg/m3}
  837.4,                                  !- Specific Heat {J/kg-K}
  0.9,                                    !- Thermal Absorptance
  0.6,                                    !- Solar Absorptance
  0.6;                                    !- Visible Absorptance

OS:Construction,
  {67307f6a-f774-4008-baee-dc90ac2a007d}, !- Handle
  Roof1 construction,                     !- Name
  ,                                       !- Surface Rendering Name
  {593649ab-e08e-437e-9d67-d3e7b2a5e19a}, !- Layer 1
  {59533971-4a47-4606-995b-04d2c0dd24f5}, !- Layer 2
  {feb30981-1af4-45c1-acc0-ab7b6ea41318}; !- Layer 3

OS:Surface,
  {a17be750-ad6d-40db-8cdd-3b43a57e21e7}, !- Handle
  Roof2,                                  !- Name
  RoofCeiling,                            !- Surface Type
  {d890551b-caba-4433-98c6-5f124572505a}, !- Construction Name
  {00cc5b12-58c6-4aa8-88f8-ccad2a439b89}, !- Space Name
  Outdoors,                               !- Outside Boundary Condition
  ,                                       !- Outside Boundary Condition Object
  SunExposed,                             !- Sun Exposure
  WindExposed,                            !- Wind Exposure
  ,                                       !- View Factor to Ground
  ,                                       !- Number of Vertices
  0.687372254093932, -8.21936148257968, 3.048, !- X,Y,Z Vertex 1 {m}
  0.687372254093932, -0.252936645502525, 7.03121241853859, !- X,Y,Z Vertex 2 {m}
  -8.21936148257969, -0.252936645502525, 7.03121241853859, !- X,Y,Z Vertex 3 {m}
  -8.21936148257969, -8.21936148257968, 3.048; !- X,Y,Z Vertex 4 {m}

OS:AdditionalProperties,
  {ba7cb264-644b-4a0e-bc21-80ab7d06838a}, !- Handle
  {a17be750-ad6d-40db-8cdd-3b43a57e21e7}, !- Object Name
  Length,                                 !- Feature Name 1
  Double,                                 !- Feature Data Type 1
  29.221567377538118,                     !- Feature Value 1
  Width,                                  !- Feature Name 2
  Double,                                 !- Feature Data Type 2
  29.221567377538118,                     !- Feature Value 2
  Azimuth,                                !- Feature Name 3
  Integer,                                !- Feature Data Type 3
  180,                                    !- Feature Value 3
  Tilt,                                   !- Feature Name 4
  Double,                                 !- Feature Data Type 4
  0.5,                                    !- Feature Value 4
  SurfaceType,                            !- Feature Name 5
  String,                                 !- Feature Data Type 5
  Roof;                                   !- Feature Value 5

OS:Construction,
  {d890551b-caba-4433-98c6-5f124572505a}, !- Handle
  Roof2 construction,                     !- Name
  ,                                       !- Surface Rendering Name
  {593649ab-e08e-437e-9d67-d3e7b2a5e19a}, !- Layer 1
  {59533971-4a47-4606-995b-04d2c0dd24f5}, !- Layer 2
  {feb30981-1af4-45c1-acc0-ab7b6ea41318}; !- Layer 3

OS:Surface,
  {628ee21c-c967-4fdd-a098-ab2b0ca98af6}, !- Handle
  Wall1,                                  !- Name
  Wall,                                   !- Surface Type
  {714aeba6-c6b3-4e06-8259-d0fca25e8697}, !- Construction Name
  {00cc5b12-58c6-4aa8-88f8-ccad2a439b89}, !- Space Name
  Outdoors,                               !- Outside Boundary Condition
  ,                                       !- Outside Boundary Condition Object
  SunExposed,                             !- Sun Exposure
  WindExposed,                            !- Wind Exposure
  ,                                       !- View Factor to Ground
  ,                                       !- Number of Vertices
  -5.82835765409393, 8.21936148257969, 0.6096, !- X,Y,Z Vertex 1 {m}
  -5.82835765409393, 8.21936148257969, 5.4864, !- X,Y,Z Vertex 2 {m}
  -1.61640265409393, 8.21936148257969, 5.4864, !- X,Y,Z Vertex 3 {m}
  -1.61640265409393, 8.21936148257969, 0.6096; !- X,Y,Z Vertex 4 {m}

OS:AdditionalProperties,
  {233f07c7-2655-4c2d-ae39-d4e28dc88b76}, !- Handle
  {628ee21c-c967-4fdd-a098-ab2b0ca98af6}, !- Object Name
  Length,                                 !- Feature Name 1
  Double,                                 !- Feature Data Type 1
  13.81875,                               !- Feature Value 1
  Azimuth,                                !- Feature Name 2
  Integer,                                !- Feature Data Type 2
  0,                                      !- Feature Value 2
  Tilt,                                   !- Feature Name 3
  Double,                                 !- Feature Data Type 3
  90,                                     !- Feature Value 3
  SurfaceType,                            !- Feature Name 4
  String,                                 !- Feature Data Type 4
  Wall;                                   !- Feature Value 4

OS:Material,
  {6deb71aa-9d98-4d70-8793-b014fd7de671}, !- Handle
  wood siding,                            !- Name
  Rough,                                  !- Roughness
  0.0254,                                 !- Thickness {m}
  0.1024175,                              !- Conductivity {W/m-K}
  544.68,                                 !- Density {kg/m3}
  1172.36,                                !- Specific Heat {J/kg-K}
  0.9,                                    !- Thermal Absorptance
  0.7,                                    !- Solar Absorptance
  0.7;                                    !- Visible Absorptance

OS:Material,
  {2382e519-a315-4cfb-8cb6-edd83e4160b6}, !- Handle
  osb sheathing 0.5 in.,                  !- Name
  Rough,                                  !- Roughness
  0.0127,                                 !- Thickness {m}
  0.1154577,                              !- Conductivity {W/m-K}
  512.64,                                 !- Density {kg/m3}
  1214.23,                                !- Specific Heat {J/kg-K}
  0.9,                                    !- Thermal Absorptance
  0.7,                                    !- Solar Absorptance
  0.7;                                    !- Visible Absorptance

OS:Material,
  {ebbd8573-bb97-477e-ab0c-61b6036d354c}, !- Handle
  wall stud and cavity,                   !- Name
  Rough,                                  !- Roughness
  0.1397,                                 !- Thickness {m}
  0.0929021674204099,                     !- Conductivity {W/m-K}
  139.0536,                               !- Density {kg/m3}
  1170.23755760369,                       !- Specific Heat {J/kg-K}
  0.9,                                    !- Thermal Absorptance
  0.7,                                    !- Solar Absorptance