
OS:Version,
  {8c8ab063-801d-4ee7-9f94-45d9c222fea8}, !- Handle
  3.9.0;                                  !- Version Identifier

OS:SimulationControl,
  {c22fe84f-caf9-40da-86cb-38a747164eab}, !- Handle
  ,                                       !- Do Zone Sizing Calculation
  ,                                       !- Do System Sizing Calculation
  ,                                       !- Do Plant Sizing Calculation
  No;                                     !- Run Simulation for Sizing Periods

OS:Timestep,
  {ed170f1d-8678-40ab-8f12-24603b3b6f4d}, !- Handle
  1;                                      !- Number of Timesteps per Hour

OS:ShadowCalculation,
  {b2eb999d-28af-4304-b6f6-4668eaaad378}, !- Handle
  PolygonClipping,                        !- Shading Calculation Method
  ,                                       !- Shading Calculation Update Frequency Method
  20,                                     !- Shading Calculation Update Frequency
  200,                                    !- Maximum Figures in Shadow Overlap Calculations
  ,                                       !- Polygon Clipping Algorithm
  512,                                    !- Pixel Counting Resolution
  ,                                       !- Sky Diffuse Modeling Algorithm
  No,                                     !- Output External Shading Calculation Results
  No,                                     !- Disable Self-Shading Within Shading Zone Groups
  No;                                     !- Disable Self-Shading From Shading Zone Groups to Other Zones

OS:SurfaceConvectionAlgorithm:Outside,
  {d437e4f1-1bc5-4709-bb8d-a13f7a0ace7c}, !- Handle
  DOE-2;                                  !- Algorithm

OS:SurfaceConvectionAlgorithm:Inside,
  {9621d27e-3e3b-4156-a0b1-1291a7f187dc}, !- Handle
  TARP;                                   !- Algorithm

OS:ZoneCapacitanceMultiplier:ResearchSpecial,
  {f37cca91-2279-4242-84c7-51e36778ca9d}, !- Handle
  7,                                      !- Temperature Capacity Multiplier
  15,                                     !- Humidity Capacity Multiplier
  ;                                       !- Carbon Dioxide Capacity Multiplier

OS:ConvergenceLimits,
  {d820b2db-fbb2-401a-818a-4913d7ad5671}, !- Handle
  0;                                      !- Minimum System Timestep {minutes}

OS:RunPeriod,
  {656157fd-16c6-4afd-bdef-b80c12300a7b}, !- Handle
  Run Period 1,                           !- Name
  1,                                      !- Begin Month
  1,                                      !- Begin Day of Month
  12,                                     !- End Month
  31,                                     !- End Day of Month
  ,                                       !- Use Weather File Holidays and Special Days
  ,                                       !- Use Weather File Daylight Saving Period
  ,                                       !- Apply Weekend Holiday Rule
  ,                                       !- Use Weather File Rain Indicators
  ,                                       !- Use Weather File Snow Indicators
  ;                                       !- Number of Times Runperiod to be Repeated

OS:PerformancePrecisionTradeoffs,
  {6d237d95-8d8e-4922-837a-cdd38447b572}, !- Handle
  ,                                       !- Use Coil Direct Solutions
  CarrollMRT;                             !- Zone Radiant Exchange Algorithm

OS:WeatherFile,
  {8cc6d915-336e-4c7b-b635-94939dd44374}, !- Handle
  Buffalo Niagara Intl Ap,                !- City
  NY,                                     !- State Province Region
  USA,                                    !- Country
  TMY3,                                   !- Data Source
  725280,                                 !- WMO Number
  42.93,                                  !- Latitude {deg}
  -78.73,                                 !- Longitude {deg}
  -5,                                     !- Time Zone {hr}
  215,                                    !- Elevation {m}
  /Users/nmoore/github/urbanopt-example-geojson-project/example_project/weather/USA_NY_Buffalo-Greater.Buffalo.Intl.AP.725280_TMY3.epw, !- Url
  6B50E0FF,                               !- Checksum
  ,                                       !- Start Date Actual Year
  Sunday;                                 !- Start Day of Week

OS:YearDescription,
  {bf493bc9-dfbc-4635-ba8e-11c1e17605e4}, !- Handle
  2007,                                   !- Calendar Year
  ,                                       !- Day of Week for Start Day
  ;                                       !- Is Leap Year

OS:Site,
  {bf0c8d55-dc68-483c-bd50-c0792cbc2e9e}, !- Handle
  Buffalo Niagara Intl Ap_NY,             !- Name
  42.93,                                  !- Latitude {deg}
  -78.73,                                 !- Longitude {deg}
  -5,                                     !- Time Zone {hr}
  215,                                    !- Elevation {m}
  Suburbs,                                !- Terrain
  Yes;                                    !- Keep Site Location Information

OS:RunPeriodControl:DaylightSavingTime,
  {edc3e548-d6e8-49cb-a3ab-826522802876}, !- Handle
  Mar 12,                                 !- Start Date
  Nov 5;                                  !- End Date

OS:Site:GroundTemperature:Shallow,
  {f4a6dccc-5d20-43af-9ae0-09fb243d9319}, !- Handle
  4.30207395723828,                       !- January Surface Ground Temperature {C}
  2.29327249652502,                       !- February Surface Ground Temperature {C}
  2.13240047156047,                       !- March Surface Ground Temperature {C}
  3.08567940719286,                       !- April Surface Ground Temperature {C}
  6.91256312497526,                       !- May Surface Ground Temperature {C}
  10.7216195949507,                       !- June Surface Ground Temperature {C}
  14.0238679822574,                       !- July Surface Ground Temperature {C}
  16.1157611184724,                       !- August Surface Ground Temperature {C}
  16.2934789303462,                       !- September Surface Ground Temperature {C}
  14.5920754632847,                       !- October Surface Ground Temperature {C}
  11.374036348653,                        !- November Surface Ground Temperature {C}
  7.68182621661674;                       !- December Surface Ground Temperature {C}

OS:ThermalZone,
  {7ebf0361-0a5f-4220-b8a8-31e0a2244d18}, !- Handle
  conditioned space,                      !- Name
  1,                                      !- Multiplier
  ,                                       !- Ceiling Height {m}
  346.03186535424,                        !- Volume {m3}
  ,                                       !- Floor Area {m2}
  ,                                       !- Zone Inside Convection Algorithm
  ,                                       !- Zone Outside Convection Algorithm
  ,                                       !- Zone Conditioning Equipment List Name
  {55dcea2e-837d-4653-b9f8-fe2cf89c878c}, !- Zone Air Inlet Port List
  {c025a3ff-b47f-44ff-b056-03f354acc9ca}, !- Zone Air Exhaust Port List
  {d403e1cc-0884-401e-ba7f-1062e6d6c49a}, !- Zone Air Node Name
  {b32a54bb-c20f-472e-ba83-0dcf36e5f39c}, !- Zone Return Air Port List
  ,                                       !- Primary Daylighting Control Name
  ,                                       !- Fraction of Zone Controlled by Primary Daylighting Control
  ,                                       !- Secondary Daylighting Control Name
  ,                                       !- Fraction of Zone Controlled by Secondary Daylighting Control
  ,                                       !- Illuminance Map Name
  ,                                       !- Group Rendering Name
  {2b676058-4621-4ebc-bb56-cdc796e2fc77}, !- Thermostat Name
  No;                                     !- Use Ideal Air Loads

OS:Node,
  {58612a32-26c9-47bf-bed6-c033c0df84a8}, !- Handle
  Node 1,                                 !- Name
  {d403e1cc-0884-401e-ba7f-1062e6d6c49a}, !- Inlet Port
  ;                                       !- Outlet Port

OS:Connection,
  {d403e1cc-0884-401e-ba7f-1062e6d6c49a}, !- Handle
  {7ebf0361-0a5f-4220-b8a8-31e0a2244d18}, !- Source Object
  11,                                     !- Outlet Port
  {58612a32-26c9-47bf-bed6-c033c0df84a8}, !- Target Object
  2;                                      !- Inlet Port

OS:PortList,
  {55dcea2e-837d-4653-b9f8-fe2cf89c878c}, !- Handle
  {7ebf0361-0a5f-4220-b8a8-31e0a2244d18}, !- HVAC Component
  {3a5882fa-4548-4e23-b7a3-d79bae857bce}; !- Port 1

OS:PortList,
  {c025a3ff-b47f-44ff-b056-03f354acc9ca}, !- Handle
  {7ebf0361-0a5f-4220-b8a8-31e0a2244d18}; !- HVAC Component

OS:PortList,
  {b32a54bb-c20f-472e-ba83-0dcf36e5f39c}, !- Handle
  {7ebf0361-0a5f-4220-b8a8-31e0a2244d18}, !- HVAC Component
  {9885013a-ca0d-42fa-b78e-7cdcc62c6b88}; !- Port 1

OS:Sizing:Zone,
  {f6b23639-43cb-48f0-8428-63b1428094f3}, !- Handle
  {7ebf0361-0a5f-4220-b8a8-31e0a2244d18}, !- Zone or ZoneList Name
  SupplyAirTemperature,                   !- Zone Cooling Design Supply Air Temperature Input Method
  14,                                     !- Zone Cooling Design Supply Air Temperature {C}
  11.11,                                  !- Zone Cooling Design Supply Air Temperature Difference {deltaC}
  SupplyAirTemperature,                   !- Zone Heating Design Supply Air Temperature Input Method
  40,                                     !- Zone Heating Design Supply Air Temperature {C}
  11.11,                                  !- Zone Heating Design Supply Air Temperature Difference {deltaC}
  0.0085,                                 !- Zone Cooling Design Supply Air Humidity Ratio {kg-H2O/kg-air}
  0.008,                                  !- Zone Heating Design Supply Air Humidity Ratio {kg-H2O/kg-air}
  ,                                       !- Zone Heating Sizing Factor
  ,                                       !- Zone Cooling Sizing Factor
  DesignDay,                              !- Cooling Design Air Flow Method
  ,                                       !- Cooling Design Air Flow Rate {m3/s}
  ,                                       !- Cooling Minimum Air Flow per Zone Floor Area {m3/s-m2}
  ,                                       !- Cooling Minimum Air Flow {m3/s}
  ,                                       !- Cooling Minimum Air Flow Fraction
  DesignDay,                              !- Heating Design Air Flow Method
  ,                                       !- Heating Design Air Flow Rate {m3/s}
  ,                                       !- Heating Maximum Air Flow per Zone Floor Area {m3/s-m2}
  ,                                       !- Heating Maximum Air Flow {m3/s}
  ,                                       !- Heating Maximum Air Flow Fraction
  No,                                     !- Account for Dedicated Outdoor Air System
  NeutralSupplyAir,                       !- Dedicated Outdoor Air System Control Strategy
  autosize,                               !- Dedicated Outdoor Air Low Setpoint Temperature for Design {C}
  autosize,                               !- Dedicated Outdoor Air High Setpoint Temperature for Design {C}
  Sensible Load Only No Latent Load,      !- Zone Load Sizing Method
  HumidityRatioDifference,                !- Zone Latent Cooling Design Supply Air Humidity Ratio Input Method
  ,                                       !- Zone Dehumidification Design Supply Air Humidity Ratio {kgWater/kgDryAir}
  0.005,                                  !- Zone Cooling Design Supply Air Humidity Ratio Difference {kgWater/kgDryAir}
  HumidityRatioDifference,                !- Zone Latent Heating Design Supply Air Humidity Ratio Input Method
  ,                                       !- Zone Humidification Design Supply Air Humidity Ratio {kgWater/kgDryAir}
  0.005,                                  !- Zone Humidification Design Supply Air Humidity Ratio Difference {kgWater/kgDryAir}
  ,                                       !- Zone Humidistat Dehumidification Set Point Schedule Name
  ,                                       !- Zone Humidistat Humidification Set Point Schedule Name
  ,                                       !- Design Zone Air Distribution Effectiveness in Cooling Mode
  ,                                       !- Design Zone Air Distribution Effectiveness in Heating Mode
  ,                                       !- Design Zone Secondary Recirculation Fraction {dimensionless}
  ,                                       !- Design Minimum Zone Ventilation Efficiency {dimensionless}
  Coincident;                             !- Sizing Option

OS:ZoneHVAC:EquipmentList,
  {b110a42d-f56f-482a-bcf2-cfec5fe43530}, !- Handle
  Zone HVAC Equipment List 1,             !- Name
  {7ebf0361-0a5f-4220-b8a8-31e0a2244d18}, !- Thermal Zone
  ,                                       !- Load Distribution Scheme
  {6f5051c9-ec3b-4431-961b-071bcd9bd2eb}, !- Zone Equipment 1
  1,                                      !- Zone Equipment Cooling Sequence 1
  1,                                      !- Zone Equipment Heating or No-Load Sequence 1
  {a6dab0e8-c644-46ad-9cf6-8dcc720df3bf}, !- Zone Equipment Sequential Cooling Fraction Schedule Name 1
  {d55ea8a9-131e-4f7c-98f2-5999d75caaac}; !- Zone Equipment Sequential Heating Fraction Schedule Name 1

OS:AdditionalProperties,
  {0b74f84e-45e2-4cb6-adec-d1ca39885b6f}, !- Handle
  {7ebf0361-0a5f-4220-b8a8-31e0a2244d18}, !- Object Name
  ObjectType,                             !- Feature Name 1
  String,                                 !- Feature Data Type 1
  conditioned space;                      !- Feature Value 1

OS:Space,
  {d3caaea1-f1a2-4e8a-9907-3dd9f3a9e472}, !- Handle
  conditioned space 1,                    !- Name
  ,                                       !- Space Type Name
  ,                                       !- Default Construction Set Name
  ,                                       !- Default Schedule Set Name
  ,                                       !- Direction of Relative North {deg}
  ,                                       !- X Origin {m}
  ,                                       !- Y Origin {m}
  ,                                       !- Z Origin {m}
  ,                                       !- Building Story Name
  {7ebf0361-0a5f-4220-b8a8-31e0a2244d18}, !- Thermal Zone Name
  ,                                       !- Part of Total Floor Area
  ,                                       !- Design Specification Outdoor Air Object Name
  ,                                       !- Building Unit Name
  346.03186535424;                        !- Volume {m3}

OS:Schedule:Ruleset,
  {75be3171-5686-486e-9cc6-a4c3cda69e4b}, !- Handle
  heating setpoint,                       !- Name
  {e9cc7460-63be-4d53-a476-ef1061b0aec0}, !- Schedule Type Limits Name
  {698cf3aa-9329-4a19-9db9-1928a05fa5b9}; !- Default Day Schedule Name

OS:Schedule:Day,
  {698cf3aa-9329-4a19-9db9-1928a05fa5b9}, !- Handle
  heating setpoint default day,           !- Name
  {e9cc7460-63be-4d53-a476-ef1061b0aec0}, !- Schedule Type Limits Name
  ,                                       !- Interpolate to Timestep
  24,                                     !- Hour 1
  0,                                      !- Minute 1
  0;                                      !- Value Until Time 1

OS:Schedule:Rule,
  {403745b5-48e4-4b09-bbcb-cc7c98503849}, !- Handle
  heating setpoint allday rule,           !- Name
  {75be3171-5686-486e-9cc6-a4c3cda69e4b}, !- Schedule Ruleset Name
  0,                                      !- Rule Order
  {2cc49568-be17-426b-9f78-9e4f644f5d4d}, !- Day Schedule Name
  Yes,                                    !- Apply Sunday
  Yes,                                    !- Apply Monday
  Yes,                                    !- Apply Tuesday
  Yes,                                    !- Apply Wednesday
  Yes,                                    !- Apply Thursday
  Yes,                                    !- Apply Friday
  Yes,                                    !- Apply Saturday
  DateRange,                              !- Date Specification Type
  1,                                      !- Start Month
  1,                                      !- Start Day
  12,                                     !- End Month
  31;                                     !- End Day

OS:Schedule:Day,
  {2cc49568-be17-426b-9f78-9e4f644f5d4d}, !- Handle
  heating setpoint day,                   !- Name
  {e9cc7460-63be-4d53-a476-ef1061b0aec0}, !- Schedule Type Limits Name
  ,                                       !- Interpolate to Timestep
  24,                                     !- Hour 1
  0,                                      !- Minute 1
  20;                                     !- Value Until Time 1

OS:Schedule:Ruleset,
  {191694ca-5bd6-45d6-be60-030131c56096}, !- Handle
  cooling setpoint,                       !- Name
  {e9cc7460-63be-4d53-a476-ef1061b0aec0}, !- Schedule Type Limits Name
  {2424fdec-2ddc-4e7f-b7a1-a81b350f3e20}; !- Default Day Schedule Name

OS:Schedule:Day,
  {2424fdec-2ddc-4e7f-b7a1-a81b350f3e20}, !- Handle
  cooling setpoint default day,           !- Name
  {e9cc7460-63be-4d53-a476-ef1061b0aec0}, !- Schedule Type Limits Name
  ,                                       !- Interpolate to Timestep
  24,                                     !- Hour 1
  0,                                      !- Minute 1
  0;                                      !- Value Until Time 1

OS:Schedule:Rule,
  {5c7d595d-9811-453e-a2fc-481fe6364b5c}, !- Handle
  cooling setpoint allday rule,           !- Name
  {191694ca-5bd6-45d6-be60-030131c56096}, !- Schedule Ruleset Name
  0,                                      !- Rule Order
  {05872973-2207-40b8-be44-f9300cd2b1a1}, !- Day Schedule Name
  Yes,                                    !- Apply Sunday
  Yes,                                    !- Apply Monday
  Yes,                                    !- Apply Tuesday
  Yes,                                    !- Apply Wednesday
  Yes,                                    !- Apply Thursday
  Yes,                                    !- Apply Friday
  Yes,                                    !- Apply Saturday
  DateRange,                              !- Date Specification Type
  1,                                      !- Start Month
  1,                                      !- Start Day
  12,                                     !- End Month
  31;                                     !- End Day

OS:Schedule:Day,
  {05872973-2207-40b8-be44-f9300cd2b1a1}, !- Handle
  cooling setpoint day,                   !- Name
  {e9cc7460-63be-4d53-a476-ef1061b0aec0}, !- Schedule Type Limits Name
  ,                                       !- Interpolate to Timestep
  24,                                     !- Hour 1
  0,                                      !- Minute 1
  25.5555555555556;                       !- Value Until Time 1

OS:ThermostatSetpoint:DualSetpoint,
  {2b676058-4621-4ebc-bb56-cdc796e2fc77}, !- Handle
  conditioned space temperature setpoint, !- Name
  {75be3171-5686-486e-9cc6-a4c3cda69e4b}, !- Heating Setpoint Temperature Schedule Name
  {191694ca-5bd6-45d6-be60-030131c56096}, !- Cooling Setpoint Temperature Schedule Name
  0;                                      !- Temperature Difference Between Cutout And Setpoint {deltaC}

OS:ScheduleTypeLimits,
  {e9cc7460-63be-4d53-a476-ef1061b0aec0}, !- Handle
  Temperature,                            !- Name
  ,                                       !- Lower Limit Value
  ,                                       !- Upper Limit Value
  Continuous,                             !- Numeric Type
  Temperature;                            !- Unit Type

OS:Surface,
  {b1c99546-8c15-4b5f-a377-bf043dd1e404}, !- Handle
  Roof1,                                  !- Name
  RoofCeiling,                            !- Surface Type
  {7b2bf640-aad6-4818-9e80-1215fc748e9a}, !- Construction Name
  {d3caaea1-f1a2-4e8a-9907-3dd9f3a9e472}, !- Space Name
  Outdoors,                               !- Outside Boundary Condition
  ,                                       !- Outside Boundary Condition Object
  SunExposed,                             !- Sun Exposure
  WindExposed,                            !- Wind Exposure
  ,                                       !- View Factor to Ground
  ,                                       !- Number of Vertices
  -0.687372254093932, 8.21936148257969, 3.048, !- X,Y,Z Vertex 1 {m}
  -0.687372254093932, 0.252936645502524, 7.03121241853859, !- X,Y,Z Vertex 2 {m}
  8.21936148257969, 0.252936645502514, 7.03121241853859, !- X,Y,Z Vertex 3 {m}
  8.21936148257969, 8.21936148257968, 3.048; !- X,Y,Z Vertex 4 {m}

OS:AdditionalProperties,
  {666323c2-7969-430d-b46a-75a3cc61ca94}, !- Handle
  {b1c99546-8c15-4b5f-a377-bf043dd1e404}, !- Object Name
  Length,                                 !- Feature Name 1
  Double,                                 !- Feature Data Type 1
  29.221567377538118,                     !- Feature Value 1
  Width,                                  !- Feature Name 2
  Double,                                 !- Feature Data Type 2
  29.221567377538118,                     !- Feature Value 2
  Azimuth,                                !- Feature Name 3
  Integer,                                !- Feature Data Type 3
  0,                                      !- Feature Value 3
  Tilt,                                   !- Feature Name 4
  Double,                                 !- Feature Data Type 4
  0.5,                                    !- Feature Value 4
  SurfaceType,                            !- Feature Name 5
  String,                                 !- Feature Data Type 5
  Roof;                                   !- Feature Value 5

OS:Material,
  {39ffe9b3-634c-4d7f-93fa-97879c768055}, !- Handle
  asphalt or fiberglass shingles,         !- Name
  Rough,                                  !- Roughness
  0.00635,                                !- Thickness {m}
  0.162714,                               !- Conductivity {W/m-K}
  1121.4,                                 !- Density {kg/m3}
  1465.45,                                !- Specific Heat {J/kg-K}
  0.9,                                    !- Thermal Absorptance
  0.85,                                   !- Solar Absorptance
  0.85;                                   !- Visible Absorptance

OS:Material,
  {ca132c9a-2f6f-41e2-a185-07e9e01d0888}, !- Handle
  roof stud and cavity,                   !- Name
  Rough,                                  !- Roughness
  0.0889,                                 !- Thickness {m}
  0.468249472857624,                      !- Conductivity {W/m-K}
  50.32683,                               !- Density {kg/m3}
  1063.80987585548,                       !- Specific Heat {J/kg-K}
  0.9,                                    !- Thermal Absorptance
  0.7,                                    !- Solar Absorptance
  0.7;                                    !- Visible Absorptance

OS:Material,
  {d78d9aae-c317-4421-824c-c1fd6509bad3}, !- Handle
  gypsum board,                           !- Name
  Rough,                                  !- Roughness
  0.00254,                                !- Thickness {m}
  0.1602906,                              !- Conductivity {W/m-K}
  801,                                    !- Density {kg/m3}
  837.4,                                  !- Specific Heat {J/kg-K}
  0.9,                                    !- Thermal Absorptance
  0.6,                                    !- Solar Absorptance
  0.6;                                    !- Visible Absorptance

OS:Construction,
  {7b2bf640-aad6-4818-9e80-1215fc748e9a}, !- Handle
  Roof1 construction,                     !- Name
  ,                                       !- Surface Rendering Name
  {39ffe9b3-634c-4d7f-93fa-97879c768055}, !- Layer 1
  {ca132c9a-2f6f-41e2-a185-07e9e01d0888}, !- Layer 2
  {d78d9aae-c317-4421-824c-c1fd6509bad3}; !- Layer 3

OS:Surface,
  {7df4ff36-6e4a-4c31-9c9e-156f518b4e7c}, !- Handle
  Roof2,                                  !- Name
  RoofCeiling,                            !- Surface Type
  {a6e19f06-be42-4c0c-b5ce-c373a8ffac0a}, !- Construction Name
  {d3caaea1-f1a2-4e8a-9907-3dd9f3a9e472}, !- Space Name
  Outdoors,                               !- Outside Boundary Condition
  ,                                       !- Outside Boundary Condition Object
  SunExposed,                             !- Sun Exposure
  WindExposed,                            !- Wind Exposure
  ,                                       !- View Factor to Ground
  ,                                       !- Number of Vertices
  0.687372254093932, -8.21936148257968, 3.048, !- X,Y,Z Vertex 1 {m}
  0.687372254093932, -0.252936645502525, 7.03121241853859, !- X,Y,Z Vertex 2 {m}
  -8.21936148257969, -0.252936645502525, 7.03121241853859, !- X,Y,Z Vertex 3 {m}
  -8.21936148257969, -8.21936148257968, 3.048; !- X,Y,Z Vertex 4 {m}

OS:AdditionalProperties,
  {35519a01-5ef9-4065-bb1c-c0a9bd54f914}, !- Handle
  {7df4ff36-6e4a-4c31-9c9e-156f518b4e7c}, !- Object Name
  Length,                                 !- Feature Name 1
  Double,                                 !- Feature Data Type 1
  29.221567377538118,                     !- Feature Value 1
  Width,                                  !- Feature Name 2
  Double,                                 !- Feature Data Type 2
  29.221567377538118,                     !- Feature Value 2
  Azimuth,                                !- Feature Name 3
  Integer,                                !- Feature Data Type 3
  180,                                    !- Feature Value 3
  Tilt,                                   !- Feature Name 4
  Double,                                 !- Feature Data Type 4
  0.5,                                    !- Feature Value 4
  SurfaceType,                            !- Feature Name 5
  String,                                 !- Feature Data Type 5
  Roof;                                   !- Feature Value 5

OS:Construction,
  {a6e19f06-be42-4c0c-b5ce-c373a8ffac0a}, !- Handle
  Roof2 construction,                     !- Name
  ,                                       !- Surface Rendering Name
  {39ffe9b3-634c-4d7f-93fa-97879c768055}, !- Layer 1
  {ca132c9a-2f6f-41e2-a185-07e9e01d0888}, !- Layer 2
  {d78d9aae-c317-4421-824c-c1fd6509bad3}; !- Layer 3

OS:Surface,
  {dbd1c8d5-77f3-4cfe-866a-d7dea72c4475}, !- Handle
  Wall1,                                  !- Name
  Wall,                                   !- Surface Type
  {27cece31-fbcd-4617-808f-c79af1b7c18e}, !- Construction Name
  {d3caaea1-f1a2-4e8a-9907-3dd9f3a9e472}, !- Space Name
  Outdoors,                               !- Outside Boundary Condition
  ,                                       !- Outside Boundary Condition Object
  SunExposed,                             !- Sun Exposure
  WindExposed,                            !- Wind Exposure
  ,                                       !- View Factor to Ground
  ,                                       !- Number of Vertices
  -5.82835765409393, 8.21936148257969, 0.6096, !- X,Y,Z Vertex 1 {m}
  -5.82835765409393, 8.21936148257969, 5.4864, !- X,Y,Z Vertex 2 {m}
  -1.61640265409393, 8.21936148257969, 5.4864, !- X,Y,Z Vertex 3 {m}
  -1.61640265409393, 8.21936148257969, 0.6096; !- X,Y,Z Vertex 4 {m}

OS:AdditionalProperties,
  {7000bbdb-0943-495e-a0bf-48f1e185dd0c}, !- Handle
  {dbd1c8d5-77f3-4cfe-866a-d7dea72c4475}, !- Object Name
  Length,                                 !- Feature Name 1
  Double,                                 !- Feature Data Type 1
  13.81875,                               !- Feature Value 1
  Azimuth,                                !- Feature Name 2
  Integer,                                !- Feature Data Type 2
  0,                                      !- Feature Value 2
  Tilt,                                   !- Feature Name 3
  Double,                                 !- Feature Data Type 3
  90,                                     !- Feature Value 3
  SurfaceType,                            !- Feature Name 4
  String,                                 !- Feature Data Type 4
  Wall;                                   !- Feature Value 4

OS:Material,
  {9e6195ed-9e64-4dfe-ad72-6339e2a45b62}, !- Handle
  wood siding,                            !- Name
  Rough,                                  !- Roughness
  0.0254,                                 !- Thickness {m}
  0.1024175,                              !- Conductivity {W/m-K}
  544.68,                                 !- Density {kg/m3}
  1172.36,                                !- Specific Heat {J/kg-K}
  0.9,                                    !- Thermal Absorptance
  0.7,                                    !- Solar Absorptance
  0.7;                                    !- Visible Absorptance

OS:Material,
  {0504c542-6be5-492f-bc29-31f96bac87f2}, !- Handle
  osb sheathing 0.5 in.,                  !- Name
  Rough,                                  !- Roughness
  0.0127,                                 !- Thickness {m}
  0.1154577,                              !- Conductivity {W/m-K}
  512.64,                                 !- Density {kg/m3}
  1214.23,                                !- Specific Heat {J/kg-K}
  0.9,                                    !- Thermal Absorptance
  0.7,                                    !- Solar Absorptance
  0.7;                                    !- Visible Absorptance

OS:Material,
  {6749c2b5-b544-4698-b4c9-558e416b0e9f}, !- Handle
  wall stud and cavity,                   !- Name
  Rough,                                  !- Roughness
  0.1397,                                 !- Thickness {m}
  0.0929021674204099,                     !- Conductivity {W/m-K}
  139.0536,                               !- Density {kg/m3}
  1170.23755760369,                       !- Specific Heat {J/kg-K}
  0.9,                                    !- Thermal Absorptance
  0.7,                                    !- Solar Absorptance