
OS:Version,
  {48607640-b4b1-418e-85e7-26b0c0661a1f}, !- Handle
  3.9.0;                                  !- Version Identifier

OS:SimulationControl,
  {0f2ef5bc-ac70-4127-bcf9-c4ee073759b5}, !- Handle
  ,                                       !- Do Zone Sizing Calculation
  ,                                       !- Do System Sizing Calculation
  ,                                       !- Do Plant Sizing Calculation
  No;                                     !- Run Simulation for Sizing Periods

OS:Timestep,
  {65be516a-2ffd-473b-b4b1-212ccf323175}, !- Handle
  1;                                      !- Number of Timesteps per Hour

OS:ShadowCalculation,
  {8422e6f2-46d1-45f1-a9f1-7a988d84ecd3}, !- Handle
  PolygonClipping,                        !- Shading Calculation Method
  ,                                       !- Shading Calculation Update Frequency Method
  20,                                     !- Shading Calculation Update Frequency
  200,                                    !- Maximum Figures in Shadow Overlap Calculations
  ,                                       !- Polygon Clipping Algorithm
  512,                                    !- Pixel Counting Resolution
  ,                                       !- Sky Diffuse Modeling Algorithm
  No,                                     !- Output External Shading Calculation Results
  No,                                     !- Disable Self-Shading Within Shading Zone Groups
  No;                                     !- Disable Self-Shading From Shading Zone Groups to Other Zones

OS:SurfaceConvectionAlgorithm:Outside,
  {d471d175-a32c-4d97-9806-27c41032a432}, !- Handle
  DOE-2;                                  !- Algorithm

OS:SurfaceConvectionAlgorithm:Inside,
  {a6e4fa6c-2de7-4f14-bd70-aec526113754}, !- Handle
  TARP;                                   !- Algorithm

OS:ZoneCapacitanceMultiplier:ResearchSpecial,
  {05c5673a-bcae-45dc-85ee-472c1ea4a018}, !- Handle
  7,                                      !- Temperature Capacity Multiplier
  15,                                     !- Humidity Capacity Multiplier
  ;                                       !- Carbon Dioxide Capacity Multiplier

OS:ConvergenceLimits,
  {4b153124-6be1-4d9a-b31e-1da8e1e8d340}, !- Handle
  0;                                      !- Minimum System Timestep {minutes}

OS:RunPeriod,
  {c448f32a-f160-4b6f-9126-76da07b9bf13}, !- Handle
  Run Period 1,                           !- Name
  1,                                      !- Begin Month
  1,                                      !- Begin Day of Month
  12,                                     !- End Month
  31,                                     !- End Day of Month
  ,                                       !- Use Weather File Holidays and Special Days
  ,                                       !- Use Weather File Daylight Saving Period
  ,                                       !- Apply Weekend Holiday Rule
  ,                                       !- Use Weather File Rain Indicators
  ,                                       !- Use Weather File Snow Indicators
  ;                                       !- Number of Times Runperiod to be Repeated

OS:PerformancePrecisionTradeoffs,
  {037edd67-5745-4e69-9aa2-c5a202df2b70}, !- Handle
  ,                                       !- Use Coil Direct Solutions
  CarrollMRT;                             !- Zone Radiant Exchange Algorithm

OS:WeatherFile,
  {4ca8b394-0500-42d8-a900-7f91e16d8d2a}, !- Handle
  Buffalo Niagara Intl Ap,                !- City
  NY,                                     !- State Province Region
  USA,                                    !- Country
  TMY3,                                   !- Data Source
  725280,                                 !- WMO Number
  42.93,                                  !- Latitude {deg}
  -78.73,                                 !- Longitude {deg}
  -5,                                     !- Time Zone {hr}
  215,                                    !- Elevation {m}
  /Users/nmoore/github/urbanopt-example-geojson-project/example_project/weather/USA_NY_Buffalo-Greater.Buffalo.Intl.AP.725280_TMY3.epw, !- Url
  6B50E0FF,                               !- Checksum
  ,                                       !- Start Date Actual Year
  Sunday;                                 !- Start Day of Week

OS:YearDescription,
  {8c972ecb-47e6-49d8-bfa2-d567159e08a4}, !- Handle
  2007,                                   !- Calendar Year
  ,                                       !- Day of Week for Start Day
  ;                                       !- Is Leap Year

OS:Site,
  {d1c26755-c824-4a37-98ef-54eeeeb4895d}, !- Handle
  Buffalo Niagara Intl Ap_NY,             !- Name
  42.93,                                  !- Latitude {deg}
  -78.73,                                 !- Longitude {deg}
  -5,                                     !- Time Zone {hr}
  215,                                    !- Elevation {m}
  Suburbs,                                !- Terrain
  Yes;                                    !- Keep Site Location Information

OS:RunPeriodControl:DaylightSavingTime,
  {4dde29cf-5c66-42fb-be85-b8eaf85779a6}, !- Handle
  Mar 12,                                 !- Start Date
  Nov 5;                                  !- End Date

OS:Site:GroundTemperature:Shallow,
  {25047c6c-3161-4024-9611-5e3758aed8fe}, !- Handle
  4.30207395723828,                       !- January Surface Ground Temperature {C}
  2.29327249652502,                       !- February Surface Ground Temperature {C}
  2.13240047156047,                       !- March Surface Ground Temperature {C}
  3.08567940719286,                       !- April Surface Ground Temperature {C}
  6.91256312497526,                       !- May Surface Ground Temperature {C}
  10.7216195949507,                       !- June Surface Ground Temperature {C}
  14.0238679822574,                       !- July Surface Ground Temperature {C}
  16.1157611184724,                       !- August Surface Ground Temperature {C}
  16.2934789303462,                       !- September Surface Ground Temperature {C}
  14.5920754632847,                       !- October Surface Ground Temperature {C}
  11.374036348653,                        !- November Surface Ground Temperature {C}
  7.68182621661674;                       !- December Surface Ground Temperature {C}

OS:ThermalZone,
  {4c765ed2-0884-48ee-86a7-b3abfd3fe1c4}, !- Handle
  conditioned space,                      !- Name
  1,                                      !- Multiplier
  ,                                       !- Ceiling Height {m}
  346.03186535424,                        !- Volume {m3}
  ,                                       !- Floor Area {m2}
  ,                                       !- Zone Inside Convection Algorithm
  ,                                       !- Zone Outside Convection Algorithm
  ,                                       !- Zone Conditioning Equipment List Name
  {39ac1aff-e027-41d6-9a5c-6ed495984bca}, !- Zone Air Inlet Port List
  {480373e8-414f-4d03-9cf1-b2c9d366710e}, !- Zone Air Exhaust Port List
  {3baf6e5b-9347-4be5-af7f-d551bd50119b}, !- Zone Air Node Name
  {1c848193-d478-4b2c-8287-144047a8b556}, !- Zone Return Air Port List
  ,                                       !- Primary Daylighting Control Name
  ,                                       !- Fraction of Zone Controlled by Primary Daylighting Control
  ,                                       !- Secondary Daylighting Control Name
  ,                                       !- Fraction of Zone Controlled by Secondary Daylighting Control
  ,                                       !- Illuminance Map Name
  ,                                       !- Group Rendering Name
  {e4e1f5a8-05c3-4286-acef-3ba6fd7c248f}, !- Thermostat Name
  No;                                     !- Use Ideal Air Loads

OS:Node,
  {cf67dfe0-1e83-4367-9742-885c1ccc4e81}, !- Handle
  Node 1,                                 !- Name
  {3baf6e5b-9347-4be5-af7f-d551bd50119b}, !- Inlet Port
  ;                                       !- Outlet Port

OS:Connection,
  {3baf6e5b-9347-4be5-af7f-d551bd50119b}, !- Handle
  {4c765ed2-0884-48ee-86a7-b3abfd3fe1c4}, !- Source Object
  11,                                     !- Outlet Port
  {cf67dfe0-1e83-4367-9742-885c1ccc4e81}, !- Target Object
  2;                                      !- Inlet Port

OS:PortList,
  {39ac1aff-e027-41d6-9a5c-6ed495984bca}, !- Handle
  {4c765ed2-0884-48ee-86a7-b3abfd3fe1c4}, !- HVAC Component
  {9ad68a4b-aa97-44c6-a57e-68a68b29fda9}; !- Port 1

OS:PortList,
  {480373e8-414f-4d03-9cf1-b2c9d366710e}, !- Handle
  {4c765ed2-0884-48ee-86a7-b3abfd3fe1c4}; !- HVAC Component

OS:PortList,
  {1c848193-d478-4b2c-8287-144047a8b556}, !- Handle
  {4c765ed2-0884-48ee-86a7-b3abfd3fe1c4}, !- HVAC Component
  {01313684-0ae3-428c-abc9-54d36da81dfb}; !- Port 1

OS:Sizing:Zone,
  {ce0e1a21-bf5b-4eda-a7ac-94441205285b}, !- Handle
  {4c765ed2-0884-48ee-86a7-b3abfd3fe1c4}, !- Zone or ZoneList Name
  SupplyAirTemperature,                   !- Zone Cooling Design Supply Air Temperature Input Method
  14,                                     !- Zone Cooling Design Supply Air Temperature {C}
  11.11,                                  !- Zone Cooling Design Supply Air Temperature Difference {deltaC}
  SupplyAirTemperature,                   !- Zone Heating Design Supply Air Temperature Input Method
  40,                                     !- Zone Heating Design Supply Air Temperature {C}
  11.11,                                  !- Zone Heating Design Supply Air Temperature Difference {deltaC}
  0.0085,                                 !- Zone Cooling Design Supply Air Humidity Ratio {kg-H2O/kg-air}
  0.008,                                  !- Zone Heating Design Supply Air Humidity Ratio {kg-H2O/kg-air}
  ,                                       !- Zone Heating Sizing Factor
  ,                                       !- Zone Cooling Sizing Factor
  DesignDay,                              !- Cooling Design Air Flow Method
  ,                                       !- Cooling Design Air Flow Rate {m3/s}
  ,                                       !- Cooling Minimum Air Flow per Zone Floor Area {m3/s-m2}
  ,                                       !- Cooling Minimum Air Flow {m3/s}
  ,                                       !- Cooling Minimum Air Flow Fraction
  DesignDay,                              !- Heating Design Air Flow Method
  ,                                       !- Heating Design Air Flow Rate {m3/s}
  ,                                       !- Heating Maximum Air Flow per Zone Floor Area {m3/s-m2}
  ,                                       !- Heating Maximum Air Flow {m3/s}
  ,                                       !- Heating Maximum Air Flow Fraction
  No,                                     !- Account for Dedicated Outdoor Air System
  NeutralSupplyAir,                       !- Dedicated Outdoor Air System Control Strategy
  autosize,                               !- Dedicated Outdoor Air Low Setpoint Temperature for Design {C}
  autosize,                               !- Dedicated Outdoor Air High Setpoint Temperature for Design {C}
  Sensible Load Only No Latent Load,      !- Zone Load Sizing Method
  HumidityRatioDifference,                !- Zone Latent Cooling Design Supply Air Humidity Ratio Input Method
  ,                                       !- Zone Dehumidification Design Supply Air Humidity Ratio {kgWater/kgDryAir}
  0.005,                                  !- Zone Cooling Design Supply Air Humidity Ratio Difference {kgWater/kgDryAir}
  HumidityRatioDifference,                !- Zone Latent Heating Design Supply Air Humidity Ratio Input Method
  ,                                       !- Zone Humidification Design Supply Air Humidity Ratio {kgWater/kgDryAir}
  0.005,                                  !- Zone Humidification Design Supply Air Humidity Ratio Difference {kgWater/kgDryAir}
  ,                                       !- Zone Humidistat Dehumidification Set Point Schedule Name
  ,                                       !- Zone Humidistat Humidification Set Point Schedule Name
  ,                                       !- Design Zone Air Distribution Effectiveness in Cooling Mode
  ,                                       !- Design Zone Air Distribution Effectiveness in Heating Mode
  ,                                       !- Design Zone Secondary Recirculation Fraction {dimensionless}
  ,                                       !- Design Minimum Zone Ventilation Efficiency {dimensionless}
  Coincident;                             !- Sizing Option

OS:ZoneHVAC:EquipmentList,
  {dac64bd1-fef1-4129-8d42-b948a9bf1ce5}, !- Handle
  Zone HVAC Equipment List 1,             !- Name
  {4c765ed2-0884-48ee-86a7-b3abfd3fe1c4}, !- Thermal Zone
  ,                                       !- Load Distribution Scheme
  {80f52c71-3668-4120-92da-9778c11d5db4}, !- Zone Equipment 1
  1,                                      !- Zone Equipment Cooling Sequence 1
  1,                                      !- Zone Equipment Heating or No-Load Sequence 1
  {aedfe9c2-757c-456c-a401-a79fce07fd76}, !- Zone Equipment Sequential Cooling Fraction Schedule Name 1
  {bca5cba0-d9a6-4eb7-92ca-07869a3c61c1}; !- Zone Equipment Sequential Heating Fraction Schedule Name 1

OS:AdditionalProperties,
  {0effa431-1bd0-4173-a539-81958c046a73}, !- Handle
  {4c765ed2-0884-48ee-86a7-b3abfd3fe1c4}, !- Object Name
  ObjectType,                             !- Feature Name 1
  String,                                 !- Feature Data Type 1
  conditioned space;                      !- Feature Value 1

OS:Space,
  {33184e27-e5de-47e0-a6bb-4a910d4023bf}, !- Handle
  conditioned space 1,                    !- Name
  ,                                       !- Space Type Name
  ,                                       !- Default Construction Set Name
  ,                                       !- Default Schedule Set Name
  ,                                       !- Direction of Relative North {deg}
  ,                                       !- X Origin {m}
  ,                                       !- Y Origin {m}
  ,                                       !- Z Origin {m}
  ,                                       !- Building Story Name
  {4c765ed2-0884-48ee-86a7-b3abfd3fe1c4}, !- Thermal Zone Name
  ,                                       !- Part of Total Floor Area
  ,                                       !- Design Specification Outdoor Air Object Name
  ,                                       !- Building Unit Name
  346.03186535424;                        !- Volume {m3}

OS:Schedule:Ruleset,
  {9803fcc9-42c4-4071-9f49-7eeab1c1436f}, !- Handle
  heating setpoint,                       !- Name
  {3b74a3b6-9215-4a63-94d9-3650ad685e09}, !- Schedule Type Limits Name
  {8365aa11-b336-4626-83a3-1891ebad0a47}; !- Default Day Schedule Name

OS:Schedule:Day,
  {8365aa11-b336-4626-83a3-1891ebad0a47}, !- Handle
  heating setpoint default day,           !- Name
  {3b74a3b6-9215-4a63-94d9-3650ad685e09}, !- Schedule Type Limits Name
  ,                                       !- Interpolate to Timestep
  24,                                     !- Hour 1
  0,                                      !- Minute 1
  0;                                      !- Value Until Time 1

OS:Schedule:Rule,
  {7d16781f-1de5-468d-a58f-b137ece22306}, !- Handle
  heating setpoint allday rule,           !- Name
  {9803fcc9-42c4-4071-9f49-7eeab1c1436f}, !- Schedule Ruleset Name
  0,                                      !- Rule Order
  {2697f5da-8325-410c-8dd8-39a86f0f9a3b}, !- Day Schedule Name
  Yes,                                    !- Apply Sunday
  Yes,                                    !- Apply Monday
  Yes,                                    !- Apply Tuesday
  Yes,                                    !- Apply Wednesday
  Yes,                                    !- Apply Thursday
  Yes,                                    !- Apply Friday
  Yes,                                    !- Apply Saturday
  DateRange,                              !- Date Specification Type
  1,                                      !- Start Month
  1,                                      !- Start Day
  12,                                     !- End Month
  31;                                     !- End Day

OS:Schedule:Day,
  {2697f5da-8325-410c-8dd8-39a86f0f9a3b}, !- Handle
  heating setpoint day,                   !- Name
  {3b74a3b6-9215-4a63-94d9-3650ad685e09}, !- Schedule Type Limits Name
  ,                                       !- Interpolate to Timestep
  24,                                     !- Hour 1
  0,                                      !- Minute 1
  20;                                     !- Value Until Time 1

OS:Schedule:Ruleset,
  {374cb64a-6bc8-4ac3-bcbe-6c2569cac41c}, !- Handle
  cooling setpoint,                       !- Name
  {3b74a3b6-9215-4a63-94d9-3650ad685e09}, !- Schedule Type Limits Name
  {69209153-df11-4f97-ba79-e0449ef5301a}; !- Default Day Schedule Name

OS:Schedule:Day,
  {69209153-df11-4f97-ba79-e0449ef5301a}, !- Handle
  cooling setpoint default day,           !- Name
  {3b74a3b6-9215-4a63-94d9-3650ad685e09}, !- Schedule Type Limits Name
  ,                                       !- Interpolate to Timestep
  24,                                     !- Hour 1
  0,                                      !- Minute 1
  0;                                      !- Value Until Time 1

OS:Schedule:Rule,
  {5b48437a-ad0b-4c0f-8f3c-c77f472aa0bf}, !- Handle
  cooling setpoint allday rule,           !- Name
  {374cb64a-6bc8-4ac3-bcbe-6c2569cac41c}, !- Schedule Ruleset Name
  0,                                      !- Rule Order
  {98239673-fe51-4b5a-8617-e6154758fa9c}, !- Day Schedule Name
  Yes,                                    !- Apply Sunday
  Yes,                                    !- Apply Monday
  Yes,                                    !- Apply Tuesday
  Yes,                                    !- Apply Wednesday
  Yes,                                    !- Apply Thursday
  Yes,                                    !- Apply Friday
  Yes,                                    !- Apply Saturday
  DateRange,                              !- Date Specification Type
  1,                                      !- Start Month
  1,                                      !- Start Day
  12,                                     !- End Month
  31;                                     !- End Day

OS:Schedule:Day,
  {98239673-fe51-4b5a-8617-e6154758fa9c}, !- Handle
  cooling setpoint day,                   !- Name
  {3b74a3b6-9215-4a63-94d9-3650ad685e09}, !- Schedule Type Limits Name
  ,                                       !- Interpolate to Timestep
  24,                                     !- Hour 1
  0,                                      !- Minute 1
  25.5555555555556;                       !- Value Until Time 1

OS:ThermostatSetpoint:DualSetpoint,
  {e4e1f5a8-05c3-4286-acef-3ba6fd7c248f}, !- Handle
  conditioned space temperature setpoint, !- Name
  {9803fcc9-42c4-4071-9f49-7eeab1c1436f}, !- Heating Setpoint Temperature Schedule Name
  {374cb64a-6bc8-4ac3-bcbe-6c2569cac41c}, !- Cooling Setpoint Temperature Schedule Name
  0;                                      !- Temperature Difference Between Cutout And Setpoint {deltaC}

OS:ScheduleTypeLimits,
  {3b74a3b6-9215-4a63-94d9-3650ad685e09}, !- Handle
  Temperature,                            !- Name
  ,                                       !- Lower Limit Value
  ,                                       !- Upper Limit Value
  Continuous,                             !- Numeric Type
  Temperature;                            !- Unit Type

OS:Surface,
  {684b1e47-7db4-4900-ba85-a294fa0ec766}, !- Handle
  Roof1,                                  !- Name
  RoofCeiling,                            !- Surface Type
  {e434f916-52be-4bdc-81df-8151fed87141}, !- Construction Name
  {33184e27-e5de-47e0-a6bb-4a910d4023bf}, !- Space Name
  Outdoors,                               !- Outside Boundary Condition
  ,                                       !- Outside Boundary Condition Object
  SunExposed,                             !- Sun Exposure
  WindExposed,                            !- Wind Exposure
  ,                                       !- View Factor to Ground
  ,                                       !- Number of Vertices
  -0.687372254093932, 8.21936148257969, 2.4384, !- X,Y,Z Vertex 1 {m}
  -0.687372254093932, 0.252936645502524, 6.42161241853859, !- X,Y,Z Vertex 2 {m}
  8.21936148257969, 0.252936645502514, 6.42161241853859, !- X,Y,Z Vertex 3 {m}
  8.21936148257969, 8.21936148257968, 2.4384; !- X,Y,Z Vertex 4 {m}

OS:AdditionalProperties,
  {aed51b2e-658c-4470-ae62-538bf3557710}, !- Handle
  {684b1e47-7db4-4900-ba85-a294fa0ec766}, !- Object Name
  Length,                                 !- Feature Name 1
  Double,                                 !- Feature Data Type 1
  29.221567377538118,                     !- Feature Value 1
  Width,                                  !- Feature Name 2
  Double,                                 !- Feature Data Type 2
  29.221567377538118,                     !- Feature Value 2
  Azimuth,                                !- Feature Name 3
  Integer,                                !- Feature Data Type 3
  0,                                      !- Feature Value 3
  Tilt,                                   !- Feature Name 4
  Double,                                 !- Feature Data Type 4
  0.5,                                    !- Feature Value 4
  SurfaceType,                            !- Feature Name 5
  String,                                 !- Feature Data Type 5
  Roof;                                   !- Feature Value 5

OS:Material,
  {547b9ef0-b747-4646-b1c3-65cb36389e3a}, !- Handle
  asphalt or fiberglass shingles,         !- Name
  Rough,                                  !- Roughness
  0.00635,                                !- Thickness {m}
  0.162714,                               !- Conductivity {W/m-K}
  1121.4,                                 !- Density {kg/m3}
  1465.45,                                !- Specific Heat {J/kg-K}
  0.9,                                    !- Thermal Absorptance
  0.85,                                   !- Solar Absorptance
  0.85;                                   !- Visible Absorptance

OS:Material,
  {5c21e71f-e8a9-4a48-bab4-0a78d12737ed}, !- Handle
  roof stud and cavity,                   !- Name
  Rough,                                  !- Roughness
  0.0889,                                 !- Thickness {m}
  0.468249472857624,                      !- Conductivity {W/m-K}
  50.32683,                               !- Density {kg/m3}
  1063.80987585548,                       !- Specific Heat {J/kg-K}
  0.9,                                    !- Thermal Absorptance
  0.7,                                    !- Solar Absorptance
  0.7;                                    !- Visible Absorptance

OS:Material,
  {57e7b1a9-c507-4f57-9570-8ceb7508c1f4}, !- Handle
  gypsum board,                           !- Name
  Rough,                                  !- Roughness
  0.00254,                                !- Thickness {m}
  0.1602906,                              !- Conductivity {W/m-K}
  801,                                    !- Density {kg/m3}
  837.4,                                  !- Specific Heat {J/kg-K}
  0.9,                                    !- Thermal Absorptance
  0.6,                                    !- Solar Absorptance
  0.6;                                    !- Visible Absorptance

OS:Construction,
  {e434f916-52be-4bdc-81df-8151fed87141}, !- Handle
  Roof1 construction,                     !- Name
  ,                                       !- Surface Rendering Name
  {547b9ef0-b747-4646-b1c3-65cb36389e3a}, !- Layer 1
  {5c21e71f-e8a9-4a48-bab4-0a78d12737ed}, !- Layer 2
  {57e7b1a9-c507-4f57-9570-8ceb7508c1f4}; !- Layer 3

OS:Surface,
  {68e922b8-0954-48bd-b089-a4ae056c2cd3}, !- Handle
  Roof2,                                  !- Name
  RoofCeiling,                            !- Surface Type
  {55e62e7b-01f9-48f7-93c4-23e6a2dd3a8e}, !- Construction Name
  {33184e27-e5de-47e0-a6bb-4a910d4023bf}, !- Space Name
  Outdoors,                               !- Outside Boundary Condition
  ,                                       !- Outside Boundary Condition Object
  SunExposed,                             !- Sun Exposure
  WindExposed,                            !- Wind Exposure
  ,                                       !- View Factor to Ground
  ,                                       !- Number of Vertices
  0.687372254093932, -8.21936148257968, 2.4384, !- X,Y,Z Vertex 1 {m}
  0.687372254093932, -0.252936645502525, 6.42161241853859, !- X,Y,Z Vertex 2 {m}
  -8.21936148257969, -0.252936645502525, 6.42161241853859, !- X,Y,Z Vertex 3 {m}
  -8.21936148257969, -8.21936148257968, 2.4384; !- X,Y,Z Vertex 4 {m}

OS:AdditionalProperties,
  {c5c9c8b9-566c-4cfd-87e3-ffdc0e40e312}, !- Handle
  {68e922b8-0954-48bd-b089-a4ae056c2cd3}, !- Object Name
  Length,                                 !- Feature Name 1
  Double,                                 !- Feature Data Type 1
  29.221567377538118,                     !- Feature Value 1
  Width,                                  !- Feature Name 2
  Double,                                 !- Feature Data Type 2
  29.221567377538118,                     !- Feature Value 2
  Azimuth,                                !- Feature Name 3
  Integer,                                !- Feature Data Type 3
  180,                                    !- Feature Value 3
  Tilt,                                   !- Feature Name 4
  Double,                                 !- Feature Data Type 4
  0.5,                                    !- Feature Value 4
  SurfaceType,                            !- Feature Name 5
  String,                                 !- Feature Data Type 5
  Roof;                                   !- Feature Value 5

OS:Construction,
  {55e62e7b-01f9-48f7-93c4-23e6a2dd3a8e}, !- Handle
  Roof2 construction,                     !- Name
  ,                                       !- Surface Rendering Name
  {547b9ef0-b747-4646-b1c3-65cb36389e3a}, !- Layer 1
  {5c21e71f-e8a9-4a48-bab4-0a78d12737ed}, !- Layer 2
  {57e7b1a9-c507-4f57-9570-8ceb7508c1f4}; !- Layer 3

OS:Surface,
  {b0f1148d-b64c-4dab-9b5d-e895560852ab}, !- Handle
  Wall1,                                  !- Name
  Wall,                                   !- Surface Type
  {66643336-9f26-40e5-a137-333190c601b3}, !- Construction Name
  {33184e27-e5de-47e0-a6bb-4a910d4023bf}, !- Space Name
  Outdoors,                               !- Outside Boundary Condition
  ,                                       !- Outside Boundary Condition Object
  SunExposed,                             !- Sun Exposure
  WindExposed,                            !- Wind Exposure
  ,                                       !- View Factor to Ground
  ,                                       !- Number of Vertices
  -5.82835765409393, 8.21936148257969, 0, !- X,Y,Z Vertex 1 {m}
  -5.82835765409393, 8.21936148257969, 4.8768, !- X,Y,Z Vertex 2 {m}
  -1.61640265409393, 8.21936148257969, 4.8768, !- X,Y,Z Vertex 3 {m}
  -1.61640265409393, 8.21936148257969, 0; !- X,Y,Z Vertex 4 {m}

OS:AdditionalProperties,
  {bb9df99c-5f30-4196-91fb-e9bec7b855b7}, !- Handle
  {b0f1148d-b64c-4dab-9b5d-e895560852ab}, !- Object Name
  Length,                                 !- Feature Name 1
  Double,                                 !- Feature Data Type 1
  13.81875,                               !- Feature Value 1
  Azimuth,                                !- Feature Name 2
  Integer,                                !- Feature Data Type 2
  0,                                      !- Feature Value 2
  Tilt,                                   !- Feature Name 3
  Double,                                 !- Feature Data Type 3
  90,                                     !- Feature Value 3
  SurfaceType,                            !- Feature Name 4
  String,                                 !- Feature Data Type 4
  Wall;                                   !- Feature Value 4

OS:Material,
  {c3352e18-bce9-4762-b779-221b11b1b2a8}, !- Handle
  wood siding,                            !- Name
  Rough,                                  !- Roughness
  0.0254,                                 !- Thickness {m}
  0.1024175,                              !- Conductivity {W/m-K}
  544.68,                                 !- Density {kg/m3}
  1172.36,                                !- Specific Heat {J/kg-K}
  0.9,                                    !- Thermal Absorptance
  0.7,                                    !- Solar Absorptance
  0.7;                                    !- Visible Absorptance

OS:Material,
  {0c97a21c-3abe-4e5c-a3e9-f1564d31a615}, !- Handle
  osb sheathing 0.5 in.,                  !- Name
  Rough,                                  !- Roughness
  0.0127,                                 !- Thickness {m}
  0.1154577,                              !- Conductivity {W/m-K}
  512.64,                                 !- Density {kg/m3}
  1214.23,                                !- Specific Heat {J/kg-K}
  0.9,                                    !- Thermal Absorptance
  0.7,                                    !- Solar Absorptance
  0.7;                                    !- Visible Absorptance

OS:Material,
  {0d5d8d90-687d-4a20-aee0-b34e7a50fda1}, !- Handle
  wall stud and cavity,                   !- Name
  Rough,                                  !- Roughness
  0.1397,                                 !- Thickness {m}
  0.0929021674204099,                     !- Conductivity {W/m-K}
  139.0536,                               !- Density {kg/m3}
  1170.23755760369,                       !- Specific Heat {J/kg-K}
  0.9,                                    !- Thermal Absorptance
  0.7,                                    !- Solar Absorptance