
OS:Version,
  {bdde9a78-0cb5-4d7a-886c-7fc6d8ba9380}, !- Handle
  3.10.0;                                 !- Version Identifier

OS:SimulationControl,
  {9af605b1-102f-4885-89dc-70ba6b6c7a73}, !- Handle
  ,                                       !- Do Zone Sizing Calculation
  ,                                       !- Do System Sizing Calculation
  ,                                       !- Do Plant Sizing Calculation
  No;                                     !- Run Simulation for Sizing Periods

OS:Timestep,
  {039d3ed4-d491-41f7-92a5-35e29ed6555d}, !- Handle
  1;                                      !- Number of Timesteps per Hour

OS:ShadowCalculation,
  {56891985-7697-4dc3-8c38-ae4d7255da34}, !- Handle
  PolygonClipping,                        !- Shading Calculation Method
  ,                                       !- Shading Calculation Update Frequency Method
  20,                                     !- Shading Calculation Update Frequency
  200,                                    !- Maximum Figures in Shadow Overlap Calculations
  ,                                       !- Polygon Clipping Algorithm
  512,                                    !- Pixel Counting Resolution
  ,                                       !- Sky Diffuse Modeling Algorithm
  No,                                     !- Output External Shading Calculation Results
  No,                                     !- Disable Self-Shading Within Shading Zone Groups
  No;                                     !- Disable Self-Shading From Shading Zone Groups to Other Zones

OS:SurfaceConvectionAlgorithm:Outside,
  {209a092a-4c29-4d37-b6f0-e6c93eb65363}, !- Handle
  DOE-2;                                  !- Algorithm

OS:SurfaceConvectionAlgorithm:Inside,
  {82929b8e-8c51-473b-bc84-335609d4a403}, !- Handle
  TARP;                                   !- Algorithm

OS:ZoneCapacitanceMultiplier:ResearchSpecial,
  {21c88317-3d77-4f1e-a093-1dd7b06d1f1b}, !- Handle
  7,                                      !- Temperature Capacity Multiplier
  15,                                     !- Humidity Capacity Multiplier
  ;                                       !- Carbon Dioxide Capacity Multiplier

OS:ConvergenceLimits,
  {0c4b52be-2260-48ef-b3ca-237e6d532b07}, !- Handle
  0;                                      !- Minimum System Timestep {minutes}

OS:RunPeriod,
  {40686c26-4baf-481e-a439-2d12c47eacd1}, !- Handle
  Run Period 1,                           !- Name
  1,                                      !- Begin Month
  1,                                      !- Begin Day of Month
  12,                                     !- End Month
  31,                                     !- End Day of Month
  ,                                       !- Use Weather File Holidays and Special Days
  ,                                       !- Use Weather File Daylight Saving Period
  ,                                       !- Apply Weekend Holiday Rule
  ,                                       !- Use Weather File Rain Indicators
  ,                                       !- Use Weather File Snow Indicators
  ;                                       !- Number of Times Runperiod to be Repeated

OS:PerformancePrecisionTradeoffs,
  {e1e1e069-194d-41a7-a976-138bb9c9f6d7}, !- Handle
  ,                                       !- Use Coil Direct Solutions
  CarrollMRT;                             !- Zone Radiant Exchange Algorithm

OS:WeatherFile,
  {4174239e-2f11-4170-96c8-92464ddbce72}, !- Handle
  Buffalo Niagara Intl Ap,                !- City
  NY,                                     !- State Province Region
  USA,                                    !- Country
  TMY3,                                   !- Data Source
  725280,                                 !- WMO Number
  42.93,                                  !- Latitude {deg}
  -78.73,                                 !- Longitude {deg}
  -5,                                     !- Time Zone {hr}
  215,                                    !- Elevation {m}
  /Users/nmoore/github/urbanopt-example-geojson-project/example_project/weather/USA_NY_Buffalo-Greater.Buffalo.Intl.AP.725280_TMY3.epw, !- Url
  6B50E0FF,                               !- Checksum
  ,                                       !- Start Date Actual Year
  Sunday;                                 !- Start Day of Week

OS:YearDescription,
  {ef2afcae-ef10-4b89-b01f-4ca05d844de4}, !- Handle
  2007,                                   !- Calendar Year
  ,                                       !- Day of Week for Start Day
  ;                                       !- Is Leap Year

OS:Site,
  {56b3b183-f96a-4529-bd2d-96e5e3f04aac}, !- Handle
  Buffalo Niagara Intl Ap_NY,             !- Name
  42.93,                                  !- Latitude {deg}
  -78.73,                                 !- Longitude {deg}
  -5,                                     !- Time Zone {hr}
  215,                                    !- Elevation {m}
  Suburbs,                                !- Terrain
  Yes;                                    !- Keep Site Location Information

OS:RunPeriodControl:DaylightSavingTime,
  {ff13ec5d-00ea-4614-855c-88472e344aff}, !- Handle
  Mar 12,                                 !- Start Date
  Nov 5;                                  !- End Date

OS:Site:GroundTemperature:Shallow,
  {5ad99942-2320-425e-b13b-dc32ae80e12d}, !- Handle
  4.30207395723828,                       !- January Surface Ground Temperature {C}
  2.29327249652502,                       !- February Surface Ground Temperature {C}
  2.13240047156047,                       !- March Surface Ground Temperature {C}
  3.08567940719286,                       !- April Surface Ground Temperature {C}
  6.91256312497526,                       !- May Surface Ground Temperature {C}
  10.7216195949507,                       !- June Surface Ground Temperature {C}
  14.0238679822574,                       !- July Surface Ground Temperature {C}
  16.1157611184724,                       !- August Surface Ground Temperature {C}
  16.2934789303462,                       !- September Surface Ground Temperature {C}
  14.5920754632847,                       !- October Surface Ground Temperature {C}
  11.374036348653,                        !- November Surface Ground Temperature {C}
  7.68182621661674;                       !- December Surface Ground Temperature {C}

OS:ThermalZone,
  {83ec25c9-1ff5-4744-90b4-4b9fa7dd9424}, !- Handle
  conditioned space,                      !- Name
  1,                                      !- Multiplier
  ,                                       !- Ceiling Height {m}
  346.03186535424,                        !- Volume {m3}
  ,                                       !- Floor Area {m2}
  ,                                       !- Zone Inside Convection Algorithm
  ,                                       !- Zone Outside Convection Algorithm
  ,                                       !- Zone Conditioning Equipment List Name
  {7f652aa3-30ef-46b1-9bed-cb7c39834d7b}, !- Zone Air Inlet Port List
  {28b4c72b-36b4-4625-b44c-a8c67667cd2e}, !- Zone Air Exhaust Port List
  {be8471d5-bf17-4199-8d94-9fa36e33c0ef}, !- Zone Air Node Name
  {2a0d2a18-bc73-4825-8a89-2348b2a1091a}, !- Zone Return Air Port List
  ,                                       !- Primary Daylighting Control Name
  ,                                       !- Fraction of Zone Controlled by Primary Daylighting Control
  ,                                       !- Secondary Daylighting Control Name
  ,                                       !- Fraction of Zone Controlled by Secondary Daylighting Control
  ,                                       !- Illuminance Map Name
  ,                                       !- Group Rendering Name
  {afae37d9-58b1-459c-bfe4-c38469630f1f}, !- Thermostat Name
  No;                                     !- Use Ideal Air Loads

OS:Node,
  {bac16e62-2100-4096-a727-fd10cd498603}, !- Handle
  Node 1,                                 !- Name
  {be8471d5-bf17-4199-8d94-9fa36e33c0ef}, !- Inlet Port
  ;                                       !- Outlet Port

OS:Connection,
  {be8471d5-bf17-4199-8d94-9fa36e33c0ef}, !- Handle
  {83ec25c9-1ff5-4744-90b4-4b9fa7dd9424}, !- Source Object
  11,                                     !- Outlet Port
  {bac16e62-2100-4096-a727-fd10cd498603}, !- Target Object
  2;                                      !- Inlet Port

OS:PortList,
  {7f652aa3-30ef-46b1-9bed-cb7c39834d7b}, !- Handle
  {83ec25c9-1ff5-4744-90b4-4b9fa7dd9424}, !- HVAC Component
  {dc72bd83-d594-4490-952c-d7a105ea963c}; !- Port 1

OS:PortList,
  {28b4c72b-36b4-4625-b44c-a8c67667cd2e}, !- Handle
  {83ec25c9-1ff5-4744-90b4-4b9fa7dd9424}; !- HVAC Component

OS:PortList,
  {2a0d2a18-bc73-4825-8a89-2348b2a1091a}, !- Handle
  {83ec25c9-1ff5-4744-90b4-4b9fa7dd9424}, !- HVAC Component
  {acc5fa77-8314-474e-bc97-03c66d9ea0ae}; !- Port 1

OS:Sizing:Zone,
  {9e49e02a-a498-4c00-9306-b2c00b936662}, !- Handle
  {83ec25c9-1ff5-4744-90b4-4b9fa7dd9424}, !- Zone or ZoneList Name
  SupplyAirTemperature,                   !- Zone Cooling Design Supply Air Temperature Input Method
  14,                                     !- Zone Cooling Design Supply Air Temperature {C}
  11.11,                                  !- Zone Cooling Design Supply Air Temperature Difference {deltaC}
  SupplyAirTemperature,                   !- Zone Heating Design Supply Air Temperature Input Method
  40,                                     !- Zone Heating Design Supply Air Temperature {C}
  11.11,                                  !- Zone Heating Design Supply Air Temperature Difference {deltaC}
  0.0085,                                 !- Zone Cooling Design Supply Air Humidity Ratio {kg-H2O/kg-air}
  0.008,                                  !- Zone Heating Design Supply Air Humidity Ratio {kg-H2O/kg-air}
  ,                                       !- Zone Heating Sizing Factor
  ,                                       !- Zone Cooling Sizing Factor
  DesignDay,                              !- Cooling Design Air Flow Method
  ,                                       !- Cooling Design Air Flow Rate {m3/s}
  ,                                       !- Cooling Minimum Air Flow per Zone Floor Area {m3/s-m2}
  ,                                       !- Cooling Minimum Air Flow {m3/s}
  ,                                       !- Cooling Minimum Air Flow Fraction
  DesignDay,                              !- Heating Design Air Flow Method
  ,                                       !- Heating Design Air Flow Rate {m3/s}
  ,                                       !- Heating Maximum Air Flow per Zone Floor Area {m3/s-m2}
  ,                                       !- Heating Maximum Air Flow {m3/s}
  ,                                       !- Heating Maximum Air Flow Fraction
  No,                                     !- Account for Dedicated Outdoor Air System
  NeutralSupplyAir,                       !- Dedicated Outdoor Air System Control Strategy
  autosize,                               !- Dedicated Outdoor Air Low Setpoint Temperature for Design {C}
  autosize,                               !- Dedicated Outdoor Air High Setpoint Temperature for Design {C}
  Sensible Load Only No Latent Load,      !- Zone Load Sizing Method
  HumidityRatioDifference,                !- Zone Latent Cooling Design Supply Air Humidity Ratio Input Method
  ,                                       !- Zone Dehumidification Design Supply Air Humidity Ratio {kgWater/kgDryAir}
  0.005,                                  !- Zone Cooling Design Supply Air Humidity Ratio Difference {kgWater/kgDryAir}
  HumidityRatioDifference,                !- Zone Latent Heating Design Supply Air Humidity Ratio Input Method
  ,                                       !- Zone Humidification Design Supply Air Humidity Ratio {kgWater/kgDryAir}
  0.005,                                  !- Zone Humidification Design Supply Air Humidity Ratio Difference {kgWater/kgDryAir}
  ,                                       !- Zone Humidistat Dehumidification Set Point Schedule Name
  ,                                       !- Zone Humidistat Humidification Set Point Schedule Name
  ,                                       !- Design Zone Air Distribution Effectiveness in Cooling Mode
  ,                                       !- Design Zone Air Distribution Effectiveness in Heating Mode
  ,                                       !- Design Zone Secondary Recirculation Fraction {dimensionless}
  ,                                       !- Design Minimum Zone Ventilation Efficiency {dimensionless}
  Coincident;                             !- Sizing Option

OS:ZoneHVAC:EquipmentList,
  {0b4b901e-aeab-40cb-af84-31cf0b7defac}, !- Handle
  Zone HVAC Equipment List 1,             !- Name
  {83ec25c9-1ff5-4744-90b4-4b9fa7dd9424}, !- Thermal Zone
  ,                                       !- Load Distribution Scheme
  {ad868f36-aa81-4599-8368-8989fc770720}, !- Zone Equipment 1
  1,                                      !- Zone Equipment Cooling Sequence 1
  1,                                      !- Zone Equipment Heating or No-Load Sequence 1
  {a78c766f-275f-4c6a-89b1-b8882aa4a161}, !- Zone Equipment Sequential Cooling Fraction Schedule Name 1
  {b563e616-51f0-42cb-ab4f-c85700a0f6ad}; !- Zone Equipment Sequential Heating Fraction Schedule Name 1

OS:AdditionalProperties,
  {1acb9bbe-5db7-4a0e-90c6-26eedc004af8}, !- Handle
  {83ec25c9-1ff5-4744-90b4-4b9fa7dd9424}, !- Object Name
  ObjectType,                             !- Feature Name 1
  String,                                 !- Feature Data Type 1
  conditioned space;                      !- Feature Value 1

OS:Space,
  {a29347e8-0879-4f75-9f94-cce97f5f9282}, !- Handle
  conditioned space 1,                    !- Name
  ,                                       !- Space Type Name
  ,                                       !- Default Construction Set Name
  ,                                       !- Default Schedule Set Name
  ,                                       !- Direction of Relative North {deg}
  ,                                       !- X Origin {m}
  ,                                       !- Y Origin {m}
  ,                                       !- Z Origin {m}
  ,                                       !- Building Story Name
  {83ec25c9-1ff5-4744-90b4-4b9fa7dd9424}, !- Thermal Zone Name
  ,                                       !- Part of Total Floor Area
  ,                                       !- Design Specification Outdoor Air Object Name
  ,                                       !- Building Unit Name
  346.03186535424;                        !- Volume {m3}

OS:Schedule:Ruleset,
  {19c706d1-f5bb-48e1-bebd-3f216d604292}, !- Handle
  heating setpoint,                       !- Name
  {66b9f3d1-00be-425a-b90a-80be8b353a91}, !- Schedule Type Limits Name
  {f6ccfd80-c8ca-4dda-8c21-268e4de5e283}; !- Default Day Schedule Name

OS:Schedule:Day,
  {f6ccfd80-c8ca-4dda-8c21-268e4de5e283}, !- Handle
  heating setpoint default day,           !- Name
  {66b9f3d1-00be-425a-b90a-80be8b353a91}, !- Schedule Type Limits Name
  ,                                       !- Interpolate to Timestep
  24,                                     !- Hour 1
  0,                                      !- Minute 1
  0;                                      !- Value Until Time 1

OS:Schedule:Rule,
  {ef51aa8b-a18e-47b7-862b-6e1d2036a7be}, !- Handle
  heating setpoint allday rule,           !- Name
  {19c706d1-f5bb-48e1-bebd-3f216d604292}, !- Schedule Ruleset Name
  0,                                      !- Rule Order
  {0e8f6d82-0b21-4428-8002-21fe41644c5f}, !- Day Schedule Name
  Yes,                                    !- Apply Sunday
  Yes,                                    !- Apply Monday
  Yes,                                    !- Apply Tuesday
  Yes,                                    !- Apply Wednesday
  Yes,                                    !- Apply Thursday
  Yes,                                    !- Apply Friday
  Yes,                                    !- Apply Saturday
  DateRange,                              !- Date Specification Type
  1,                                      !- Start Month
  1,                                      !- Start Day
  12,                                     !- End Month
  31;                                     !- End Day

OS:Schedule:Day,
  {0e8f6d82-0b21-4428-8002-21fe41644c5f}, !- Handle
  heating setpoint day,                   !- Name
  {66b9f3d1-00be-425a-b90a-80be8b353a91}, !- Schedule Type Limits Name
  ,                                       !- Interpolate to Timestep
  24,                                     !- Hour 1
  0,                                      !- Minute 1
  20;                                     !- Value Until Time 1

OS:Schedule:Ruleset,
  {06508f82-67af-43ef-8049-9dafc5750396}, !- Handle
  cooling setpoint,                       !- Name
  {66b9f3d1-00be-425a-b90a-80be8b353a91}, !- Schedule Type Limits Name
  {ec93159e-673b-44f6-a240-895aaae53ed2}; !- Default Day Schedule Name

OS:Schedule:Day,
  {ec93159e-673b-44f6-a240-895aaae53ed2}, !- Handle
  cooling setpoint default day,           !- Name
  {66b9f3d1-00be-425a-b90a-80be8b353a91}, !- Schedule Type Limits Name
  ,                                       !- Interpolate to Timestep
  24,                                     !- Hour 1
  0,                                      !- Minute 1
  0;                                      !- Value Until Time 1

OS:Schedule:Rule,
  {4acf8c47-fea1-4a4f-9691-4ab7a11b7239}, !- Handle
  cooling setpoint allday rule,           !- Name
  {06508f82-67af-43ef-8049-9dafc5750396}, !- Schedule Ruleset Name
  0,                                      !- Rule Order
  {f56aff1b-3cd6-43d2-9609-69a422b6bc0f}, !- Day Schedule Name
  Yes,                                    !- Apply Sunday
  Yes,                                    !- Apply Monday
  Yes,                                    !- Apply Tuesday
  Yes,                                    !- Apply Wednesday
  Yes,                                    !- Apply Thursday
  Yes,                                    !- Apply Friday
  Yes,                                    !- Apply Saturday
  DateRange,                              !- Date Specification Type
  1,                                      !- Start Month
  1,                                      !- Start Day
  12,                                     !- End Month
  31;                                     !- End Day

OS:Schedule:Day,
  {f56aff1b-3cd6-43d2-9609-69a422b6bc0f}, !- Handle
  cooling setpoint day,                   !- Name
  {66b9f3d1-00be-425a-b90a-80be8b353a91}, !- Schedule Type Limits Name
  ,                                       !- Interpolate to Timestep
  24,                                     !- Hour 1
  0,                                      !- Minute 1
  25.5555555555556;                       !- Value Until Time 1

OS:ThermostatSetpoint:DualSetpoint,
  {afae37d9-58b1-459c-bfe4-c38469630f1f}, !- Handle
  conditioned space temperature setpoint, !- Name
  {19c706d1-f5bb-48e1-bebd-3f216d604292}, !- Heating Setpoint Temperature Schedule Name
  {06508f82-67af-43ef-8049-9dafc5750396}, !- Cooling Setpoint Temperature Schedule Name
  0;                                      !- Temperature Difference Between Cutout And Setpoint {deltaC}

OS:ScheduleTypeLimits,
  {66b9f3d1-00be-425a-b90a-80be8b353a91}, !- Handle
  Temperature,                            !- Name
  ,                                       !- Lower Limit Value
  ,                                       !- Upper Limit Value
  Continuous,                             !- Numeric Type
  Temperature;                            !- Unit Type

OS:Surface,
  {969af90b-9a5e-43d3-86b2-03fb103589a9}, !- Handle
  Roof1,                                  !- Name
  RoofCeiling,                            !- Surface Type
  {3c253eb8-2a36-43cc-830e-0f22867eb548}, !- Construction Name
  {a29347e8-0879-4f75-9f94-cce97f5f9282}, !- Space Name
  Outdoors,                               !- Outside Boundary Condition
  ,                                       !- Outside Boundary Condition Object
  SunExposed,                             !- Sun Exposure
  WindExposed,                            !- Wind Exposure
  ,                                       !- View Factor to Ground
  ,                                       !- Number of Vertices
  -0.687372254093932, 8.21936148257969, 2.4384, !- X,Y,Z Vertex 1 {m}
  -0.687372254093932, 0.252936645502524, 6.42161241853859, !- X,Y,Z Vertex 2 {m}
  8.21936148257969, 0.252936645502514, 6.42161241853859, !- X,Y,Z Vertex 3 {m}
  8.21936148257969, 8.21936148257968, 2.4384; !- X,Y,Z Vertex 4 {m}

OS:AdditionalProperties,
  {21b6ff41-bab4-47c6-9d57-0cf82278fecc}, !- Handle
  {969af90b-9a5e-43d3-86b2-03fb103589a9}, !- Object Name
  Length,                                 !- Feature Name 1
  Double,                                 !- Feature Data Type 1
  29.221567377538118,                     !- Feature Value 1
  Width,                                  !- Feature Name 2
  Double,                                 !- Feature Data Type 2
  29.221567377538118,                     !- Feature Value 2
  Azimuth,                                !- Feature Name 3
  Integer,                                !- Feature Data Type 3
  0,                                      !- Feature Value 3
  Tilt,                                   !- Feature Name 4
  Double,                                 !- Feature Data Type 4
  0.5,                                    !- Feature Value 4
  SurfaceType,                            !- Feature Name 5
  String,                                 !- Feature Data Type 5
  Roof;                                   !- Feature Value 5

OS:Material,
  {de201dd9-d7aa-4cc7-ae34-9199f9431849}, !- Handle
  asphalt or fiberglass shingles,         !- Name
  Rough,                                  !- Roughness
  0.00635,                                !- Thickness {m}
  0.162714,                               !- Conductivity {W/m-K}
  1121.4,                                 !- Density {kg/m3}
  1465.45,                                !- Specific Heat {J/kg-K}
  0.9,                                    !- Thermal Absorptance
  0.85,                                   !- Solar Absorptance
  0.85;                                   !- Visible Absorptance

OS:Material,
  {333dcaff-6405-4dea-a610-9e0f6e837277}, !- Handle
  roof stud and cavity,                   !- Name
  Rough,                                  !- Roughness
  0.0889,                                 !- Thickness {m}
  0.468249472857624,                      !- Conductivity {W/m-K}
  50.32683,                               !- Density {kg/m3}
  1063.80987585548,                       !- Specific Heat {J/kg-K}
  0.9,                                    !- Thermal Absorptance
  0.7,                                    !- Solar Absorptance
  0.7;                                    !- Visible Absorptance

OS:Material,
  {e7374aa8-a6fe-45ba-9b70-c8029fd0a862}, !- Handle
  gypsum board,                           !- Name
  Rough,                                  !- Roughness
  0.00254,                                !- Thickness {m}
  0.1602906,                              !- Conductivity {W/m-K}
  801,                                    !- Density {kg/m3}
  837.4,                                  !- Specific Heat {J/kg-K}
  0.9,                                    !- Thermal Absorptance
  0.6,                                    !- Solar Absorptance
  0.6;                                    !- Visible Absorptance

OS:Construction,
  {3c253eb8-2a36-43cc-830e-0f22867eb548}, !- Handle
  Roof1 construction,                     !- Name
  ,                                       !- Surface Rendering Name
  {de201dd9-d7aa-4cc7-ae34-9199f9431849}, !- Layer 1
  {333dcaff-6405-4dea-a610-9e0f6e837277}, !- Layer 2
  {e7374aa8-a6fe-45ba-9b70-c8029fd0a862}; !- Layer 3

OS:Surface,
  {a2fea5f4-08ba-4066-9954-f9046984a1ce}, !- Handle
  Roof2,                                  !- Name
  RoofCeiling,                            !- Surface Type
  {9a63cdd7-a0e5-4929-b8a2-dbbd5f946bc7}, !- Construction Name
  {a29347e8-0879-4f75-9f94-cce97f5f9282}, !- Space Name
  Outdoors,                               !- Outside Boundary Condition
  ,                                       !- Outside Boundary Condition Object
  SunExposed,                             !- Sun Exposure
  WindExposed,                            !- Wind Exposure
  ,                                       !- View Factor to Ground
  ,                                       !- Number of Vertices
  0.687372254093932, -8.21936148257968, 2.4384, !- X,Y,Z Vertex 1 {m}
  0.687372254093932, -0.252936645502525, 6.42161241853859, !- X,Y,Z Vertex 2 {m}
  -8.21936148257969, -0.252936645502525, 6.42161241853859, !- X,Y,Z Vertex 3 {m}
  -8.21936148257969, -8.21936148257968, 2.4384; !- X,Y,Z Vertex 4 {m}

OS:AdditionalProperties,
  {26ca5db0-67ad-44f7-beed-84dace1d6bae}, !- Handle
  {a2fea5f4-08ba-4066-9954-f9046984a1ce}, !- Object Name
  Length,                                 !- Feature Name 1
  Double,                                 !- Feature Data Type 1
  29.221567377538118,                     !- Feature Value 1
  Width,                                  !- Feature Name 2
  Double,                                 !- Feature Data Type 2
  29.221567377538118,                     !- Feature Value 2
  Azimuth,                                !- Feature Name 3
  Integer,                                !- Feature Data Type 3
  180,                                    !- Feature Value 3
  Tilt,                                   !- Feature Name 4
  Double,                                 !- Feature Data Type 4
  0.5,                                    !- Feature Value 4
  SurfaceType,                            !- Feature Name 5
  String,                                 !- Feature Data Type 5
  Roof;                                   !- Feature Value 5

OS:Construction,
  {9a63cdd7-a0e5-4929-b8a2-dbbd5f946bc7}, !- Handle
  Roof2 construction,                     !- Name
  ,                                       !- Surface Rendering Name
  {de201dd9-d7aa-4cc7-ae34-9199f9431849}, !- Layer 1
  {333dcaff-6405-4dea-a610-9e0f6e837277}, !- Layer 2
  {e7374aa8-a6fe-45ba-9b70-c8029fd0a862}; !- Layer 3

OS:Surface,
  {de421df8-0b65-497f-bd7f-2085b604f9bb}, !- Handle
  Wall1,                                  !- Name
  Wall,                                   !- Surface Type
  {b9e6995e-4d61-4643-8514-3c9ec81d4409}, !- Construction Name
  {a29347e8-0879-4f75-9f94-cce97f5f9282}, !- Space Name
  Outdoors,                               !- Outside Boundary Condition
  ,                                       !- Outside Boundary Condition Object
  SunExposed,                             !- Sun Exposure
  WindExposed,                            !- Wind Exposure
  ,                                       !- View Factor to Ground
  ,                                       !- Number of Vertices
  -5.82835765409393, 8.21936148257969, 0, !- X,Y,Z Vertex 1 {m}
  -5.82835765409393, 8.21936148257969, 4.8768, !- X,Y,Z Vertex 2 {m}
  -1.61640265409393, 8.21936148257969, 4.8768, !- X,Y,Z Vertex 3 {m}
  -1.61640265409393, 8.21936148257969, 0; !- X,Y,Z Vertex 4 {m}

OS:AdditionalProperties,
  {cf3a3c1e-01af-4459-917d-01d57b86aac8}, !- Handle
  {de421df8-0b65-497f-bd7f-2085b604f9bb}, !- Object Name
  Length,                                 !- Feature Name 1
  Double,                                 !- Feature Data Type 1
  13.81875,                               !- Feature Value 1
  Azimuth,                                !- Feature Name 2
  Integer,                                !- Feature Data Type 2
  0,                                      !- Feature Value 2
  Tilt,                                   !- Feature Name 3
  Double,                                 !- Feature Data Type 3
  90,                                     !- Feature Value 3
  SurfaceType,                            !- Feature Name 4
  String,                                 !- Feature Data Type 4
  Wall;                                   !- Feature Value 4

OS:Material,
  {d69eb629-0846-49af-b79c-205f036eba50}, !- Handle
  wood siding,                            !- Name
  Rough,                                  !- Roughness
  0.0254,                                 !- Thickness {m}
  0.1024175,                              !- Conductivity {W/m-K}
  544.68,                                 !- Density {kg/m3}
  1172.36,                                !- Specific Heat {J/kg-K}
  0.9,                                    !- Thermal Absorptance
  0.7,                                    !- Solar Absorptance
  0.7;                                    !- Visible Absorptance

OS:Material,
  {e0fe6432-9a7c-41e0-b435-104be569b06b}, !- Handle
  osb sheathing 0.5 in.,                  !- Name
  Rough,                                  !- Roughness
  0.0127,                                 !- Thickness {m}
  0.1154577,                              !- Conductivity {W/m-K}
  512.64,                                 !- Density {kg/m3}
  1214.23,                                !- Specific Heat {J/kg-K}
  0.9,                                    !- Thermal Absorptance
  0.7,                                    !- Solar Absorptance
  0.7;                                    !- Visible Absorptance

OS:Material,
  {1136cf2a-ce57-4b84-ae38-30ae0a475d1e}, !- Handle
  wall stud and cavity,                   !- Name
  Rough,                                  !- Roughness
  0.1397,                                 !- Thickness {m}
  0.0929021674204099,                     !- Conductivity {W/m-K}
  139.0536,                               !- Density {kg/m3}
  1170.23755760369,                       !- Specific Heat {J/kg-K}
  0.9,                                    !- Thermal Absorptance
  0.7,                                    !- Solar Absorptance