
OS:Version,
  {44d3d0ef-bb2c-49a3-9d29-ec23c008f9c8}, !- Handle
  3.9.0;                                  !- Version Identifier

OS:SimulationControl,
  {50b8bfdf-5423-4215-a7c1-399b7f04a329}, !- Handle
  ,                                       !- Do Zone Sizing Calculation
  ,                                       !- Do System Sizing Calculation
  ,                                       !- Do Plant Sizing Calculation
  No;                                     !- Run Simulation for Sizing Periods

OS:Timestep,
  {0f1880d7-840c-4903-935a-95149ba301d7}, !- Handle
  1;                                      !- Number of Timesteps per Hour

OS:ShadowCalculation,
  {6e350fb4-e33a-4033-b311-a7fe896318b4}, !- Handle
  PolygonClipping,                        !- Shading Calculation Method
  ,                                       !- Shading Calculation Update Frequency Method
  20,                                     !- Shading Calculation Update Frequency
  200,                                    !- Maximum Figures in Shadow Overlap Calculations
  ,                                       !- Polygon Clipping Algorithm
  512,                                    !- Pixel Counting Resolution
  ,                                       !- Sky Diffuse Modeling Algorithm
  No,                                     !- Output External Shading Calculation Results
  No,                                     !- Disable Self-Shading Within Shading Zone Groups
  No;                                     !- Disable Self-Shading From Shading Zone Groups to Other Zones

OS:SurfaceConvectionAlgorithm:Outside,
  {8788fcfd-3099-4139-b709-41414ad23ac6}, !- Handle
  DOE-2;                                  !- Algorithm

OS:SurfaceConvectionAlgorithm:Inside,
  {b14bf567-0872-4527-8a70-9b8970dadd07}, !- Handle
  TARP;                                   !- Algorithm

OS:ZoneCapacitanceMultiplier:ResearchSpecial,
  {98b4bd29-73ef-4425-ab2e-af1e5753a640}, !- Handle
  7,                                      !- Temperature Capacity Multiplier
  15,                                     !- Humidity Capacity Multiplier
  ;                                       !- Carbon Dioxide Capacity Multiplier

OS:ConvergenceLimits,
  {2253c680-b588-4a87-8cae-63c8979d7b5f}, !- Handle
  0;                                      !- Minimum System Timestep {minutes}

OS:RunPeriod,
  {5774f3b1-596d-4f90-8f2e-4d21952b6681}, !- Handle
  Run Period 1,                           !- Name
  1,                                      !- Begin Month
  1,                                      !- Begin Day of Month
  12,                                     !- End Month
  31,                                     !- End Day of Month
  ,                                       !- Use Weather File Holidays and Special Days
  ,                                       !- Use Weather File Daylight Saving Period
  ,                                       !- Apply Weekend Holiday Rule
  ,                                       !- Use Weather File Rain Indicators
  ,                                       !- Use Weather File Snow Indicators
  ;                                       !- Number of Times Runperiod to be Repeated

OS:PerformancePrecisionTradeoffs,
  {a4b862df-d94c-4d45-81dc-07279b3ed28d}, !- Handle
  ,                                       !- Use Coil Direct Solutions
  CarrollMRT;                             !- Zone Radiant Exchange Algorithm

OS:WeatherFile,
  {a639af99-cb60-4ed3-ac3f-714436445f10}, !- Handle
  Buffalo Niagara Intl Ap,                !- City
  NY,                                     !- State Province Region
  USA,                                    !- Country
  TMY3,                                   !- Data Source
  725280,                                 !- WMO Number
  42.93,                                  !- Latitude {deg}
  -78.73,                                 !- Longitude {deg}
  -5,                                     !- Time Zone {hr}
  215,                                    !- Elevation {m}
  /Users/nmoore/github/urbanopt-example-geojson-project/example_project/weather/USA_NY_Buffalo-Greater.Buffalo.Intl.AP.725280_TMY3.epw, !- Url
  6B50E0FF,                               !- Checksum
  ,                                       !- Start Date Actual Year
  Sunday;                                 !- Start Day of Week

OS:YearDescription,
  {668ef01a-b928-40f1-bf3d-c8367807e511}, !- Handle
  2007,                                   !- Calendar Year
  ,                                       !- Day of Week for Start Day
  ;                                       !- Is Leap Year

OS:Site,
  {a82d1a09-cd0a-44de-b0f6-97129016caff}, !- Handle
  Buffalo Niagara Intl Ap_NY,             !- Name
  42.93,                                  !- Latitude {deg}
  -78.73,                                 !- Longitude {deg}
  -5,                                     !- Time Zone {hr}
  215,                                    !- Elevation {m}
  Suburbs,                                !- Terrain
  Yes;                                    !- Keep Site Location Information

OS:RunPeriodControl:DaylightSavingTime,
  {2640bc21-9bbb-478c-9c4c-bcc77e1c896b}, !- Handle
  Mar 12,                                 !- Start Date
  Nov 5;                                  !- End Date

OS:Site:GroundTemperature:Shallow,
  {b7d73baf-a401-4e8e-b073-571fcf29ea18}, !- Handle
  4.30207395723828,                       !- January Surface Ground Temperature {C}
  2.29327249652502,                       !- February Surface Ground Temperature {C}
  2.13240047156047,                       !- March Surface Ground Temperature {C}
  3.08567940719286,                       !- April Surface Ground Temperature {C}
  6.91256312497526,                       !- May Surface Ground Temperature {C}
  10.7216195949507,                       !- June Surface Ground Temperature {C}
  14.0238679822574,                       !- July Surface Ground Temperature {C}
  16.1157611184724,                       !- August Surface Ground Temperature {C}
  16.2934789303462,                       !- September Surface Ground Temperature {C}
  14.5920754632847,                       !- October Surface Ground Temperature {C}
  11.374036348653,                        !- November Surface Ground Temperature {C}
  7.68182621661674;                       !- December Surface Ground Temperature {C}

OS:ThermalZone,
  {10afce51-9f3f-4b75-874f-94cd71b4b46c}, !- Handle
  conditioned space,                      !- Name
  1,                                      !- Multiplier
  ,                                       !- Ceiling Height {m}
  692.06373070848,                        !- Volume {m3}
  ,                                       !- Floor Area {m2}
  ,                                       !- Zone Inside Convection Algorithm
  ,                                       !- Zone Outside Convection Algorithm
  ,                                       !- Zone Conditioning Equipment List Name
  {7683d4a7-9486-4439-ae91-bfde7a9f5833}, !- Zone Air Inlet Port List
  {6151579e-f6a0-48dd-a54c-709396c87cb8}, !- Zone Air Exhaust Port List
  {03c9969d-e31a-4243-bc0b-5927889c13b7}, !- Zone Air Node Name
  {acd1375b-c432-4203-ac93-259990964854}, !- Zone Return Air Port List
  ,                                       !- Primary Daylighting Control Name
  ,                                       !- Fraction of Zone Controlled by Primary Daylighting Control
  ,                                       !- Secondary Daylighting Control Name
  ,                                       !- Fraction of Zone Controlled by Secondary Daylighting Control
  ,                                       !- Illuminance Map Name
  ,                                       !- Group Rendering Name
  {98625924-80d7-43c3-ae57-325e04867515}, !- Thermostat Name
  No;                                     !- Use Ideal Air Loads

OS:Node,
  {9052fc24-29a8-4669-9657-6e0551473b28}, !- Handle
  Node 1,                                 !- Name
  {03c9969d-e31a-4243-bc0b-5927889c13b7}, !- Inlet Port
  ;                                       !- Outlet Port

OS:Connection,
  {03c9969d-e31a-4243-bc0b-5927889c13b7}, !- Handle
  {10afce51-9f3f-4b75-874f-94cd71b4b46c}, !- Source Object
  11,                                     !- Outlet Port
  {9052fc24-29a8-4669-9657-6e0551473b28}, !- Target Object
  2;                                      !- Inlet Port

OS:PortList,
  {7683d4a7-9486-4439-ae91-bfde7a9f5833}, !- Handle
  {10afce51-9f3f-4b75-874f-94cd71b4b46c}, !- HVAC Component
  {36e43fea-a4d2-4cb6-9675-2da1c28e52cf}; !- Port 1

OS:PortList,
  {6151579e-f6a0-48dd-a54c-709396c87cb8}, !- Handle
  {10afce51-9f3f-4b75-874f-94cd71b4b46c}; !- HVAC Component

OS:PortList,
  {acd1375b-c432-4203-ac93-259990964854}, !- Handle
  {10afce51-9f3f-4b75-874f-94cd71b4b46c}, !- HVAC Component
  {7efe69cf-5e83-4170-9767-0edd6643100d}; !- Port 1

OS:Sizing:Zone,
  {905e2224-2734-414e-9801-97ec4c78d718}, !- Handle
  {10afce51-9f3f-4b75-874f-94cd71b4b46c}, !- Zone or ZoneList Name
  SupplyAirTemperature,                   !- Zone Cooling Design Supply Air Temperature Input Method
  14,                                     !- Zone Cooling Design Supply Air Temperature {C}
  11.11,                                  !- Zone Cooling Design Supply Air Temperature Difference {deltaC}
  SupplyAirTemperature,                   !- Zone Heating Design Supply Air Temperature Input Method
  40,                                     !- Zone Heating Design Supply Air Temperature {C}
  11.11,                                  !- Zone Heating Design Supply Air Temperature Difference {deltaC}
  0.0085,                                 !- Zone Cooling Design Supply Air Humidity Ratio {kg-H2O/kg-air}
  0.008,                                  !- Zone Heating Design Supply Air Humidity Ratio {kg-H2O/kg-air}
  ,                                       !- Zone Heating Sizing Factor
  ,                                       !- Zone Cooling Sizing Factor
  DesignDay,                              !- Cooling Design Air Flow Method
  ,                                       !- Cooling Design Air Flow Rate {m3/s}
  ,                                       !- Cooling Minimum Air Flow per Zone Floor Area {m3/s-m2}
  ,                                       !- Cooling Minimum Air Flow {m3/s}
  ,                                       !- Cooling Minimum Air Flow Fraction
  DesignDay,                              !- Heating Design Air Flow Method
  ,                                       !- Heating Design Air Flow Rate {m3/s}
  ,                                       !- Heating Maximum Air Flow per Zone Floor Area {m3/s-m2}
  ,                                       !- Heating Maximum Air Flow {m3/s}
  ,                                       !- Heating Maximum Air Flow Fraction
  No,                                     !- Account for Dedicated Outdoor Air System
  NeutralSupplyAir,                       !- Dedicated Outdoor Air System Control Strategy
  autosize,                               !- Dedicated Outdoor Air Low Setpoint Temperature for Design {C}
  autosize,                               !- Dedicated Outdoor Air High Setpoint Temperature for Design {C}
  Sensible Load Only No Latent Load,      !- Zone Load Sizing Method
  HumidityRatioDifference,                !- Zone Latent Cooling Design Supply Air Humidity Ratio Input Method
  ,                                       !- Zone Dehumidification Design Supply Air Humidity Ratio {kgWater/kgDryAir}
  0.005,                                  !- Zone Cooling Design Supply Air Humidity Ratio Difference {kgWater/kgDryAir}
  HumidityRatioDifference,                !- Zone Latent Heating Design Supply Air Humidity Ratio Input Method
  ,                                       !- Zone Humidification Design Supply Air Humidity Ratio {kgWater/kgDryAir}
  0.005,                                  !- Zone Humidification Design Supply Air Humidity Ratio Difference {kgWater/kgDryAir}
  ,                                       !- Zone Humidistat Dehumidification Set Point Schedule Name
  ,                                       !- Zone Humidistat Humidification Set Point Schedule Name
  ,                                       !- Design Zone Air Distribution Effectiveness in Cooling Mode
  ,                                       !- Design Zone Air Distribution Effectiveness in Heating Mode
  ,                                       !- Design Zone Secondary Recirculation Fraction {dimensionless}
  ,                                       !- Design Minimum Zone Ventilation Efficiency {dimensionless}
  Coincident;                             !- Sizing Option

OS:ZoneHVAC:EquipmentList,
  {112a8de6-c53f-4e38-8081-44efea4f8570}, !- Handle
  Zone HVAC Equipment List 1,             !- Name
  {10afce51-9f3f-4b75-874f-94cd71b4b46c}, !- Thermal Zone
  ,                                       !- Load Distribution Scheme
  {34b33319-524c-4094-93a8-ef6876ff3489}, !- Zone Equipment 1
  1,                                      !- Zone Equipment Cooling Sequence 1
  1,                                      !- Zone Equipment Heating or No-Load Sequence 1
  {6d75c28f-f2a8-466e-9079-31f3fa4afb34}, !- Zone Equipment Sequential Cooling Fraction Schedule Name 1
  {b59b8847-8096-406c-aae4-644b49675038}; !- Zone Equipment Sequential Heating Fraction Schedule Name 1

OS:AdditionalProperties,
  {cc1d6bb3-6d7a-492e-8dd3-66ec70c762e6}, !- Handle
  {10afce51-9f3f-4b75-874f-94cd71b4b46c}, !- Object Name
  ObjectType,                             !- Feature Name 1
  String,                                 !- Feature Data Type 1
  conditioned space;                      !- Feature Value 1

OS:Space,
  {4521e376-40b6-409b-8a45-b74d54d44c19}, !- Handle
  conditioned space 1,                    !- Name
  ,                                       !- Space Type Name
  ,                                       !- Default Construction Set Name
  ,                                       !- Default Schedule Set Name
  ,                                       !- Direction of Relative North {deg}
  ,                                       !- X Origin {m}
  ,                                       !- Y Origin {m}
  ,                                       !- Z Origin {m}
  ,                                       !- Building Story Name
  {10afce51-9f3f-4b75-874f-94cd71b4b46c}, !- Thermal Zone Name
  ,                                       !- Part of Total Floor Area
  ,                                       !- Design Specification Outdoor Air Object Name
  ,                                       !- Building Unit Name
  692.06373070848;                        !- Volume {m3}

OS:Schedule:Ruleset,
  {492707a2-40da-43eb-8697-872dfcc94231}, !- Handle
  heating setpoint,                       !- Name
  {8742eebb-8ff1-43b9-aedf-be6af3edcc00}, !- Schedule Type Limits Name
  {074f9a72-5128-4808-a441-b9ee6dc2f833}; !- Default Day Schedule Name

OS:Schedule:Day,
  {074f9a72-5128-4808-a441-b9ee6dc2f833}, !- Handle
  heating setpoint default day,           !- Name
  {8742eebb-8ff1-43b9-aedf-be6af3edcc00}, !- Schedule Type Limits Name
  ,                                       !- Interpolate to Timestep
  24,                                     !- Hour 1
  0,                                      !- Minute 1
  0;                                      !- Value Until Time 1

OS:Schedule:Rule,
  {fa878abe-721c-46ff-ae7f-e02c8541ba6e}, !- Handle
  heating setpoint allday rule,           !- Name
  {492707a2-40da-43eb-8697-872dfcc94231}, !- Schedule Ruleset Name
  0,                                      !- Rule Order
  {a921dac0-bc10-4e95-88ce-9d0fc034267b}, !- Day Schedule Name
  Yes,                                    !- Apply Sunday
  Yes,                                    !- Apply Monday
  Yes,                                    !- Apply Tuesday
  Yes,                                    !- Apply Wednesday
  Yes,                                    !- Apply Thursday
  Yes,                                    !- Apply Friday
  Yes,                                    !- Apply Saturday
  DateRange,                              !- Date Specification Type
  1,                                      !- Start Month
  1,                                      !- Start Day
  12,                                     !- End Month
  31;                                     !- End Day

OS:Schedule:Day,
  {a921dac0-bc10-4e95-88ce-9d0fc034267b}, !- Handle
  heating setpoint day,                   !- Name
  {8742eebb-8ff1-43b9-aedf-be6af3edcc00}, !- Schedule Type Limits Name
  ,                                       !- Interpolate to Timestep
  24,                                     !- Hour 1
  0,                                      !- Minute 1
  20;                                     !- Value Until Time 1

OS:Schedule:Ruleset,
  {5aececd0-ea1e-44c4-b867-3114ad8ded51}, !- Handle
  cooling setpoint,                       !- Name
  {8742eebb-8ff1-43b9-aedf-be6af3edcc00}, !- Schedule Type Limits Name
  {1cecf9f5-0b26-48f5-b802-049bb8c47cc4}; !- Default Day Schedule Name

OS:Schedule:Day,
  {1cecf9f5-0b26-48f5-b802-049bb8c47cc4}, !- Handle
  cooling setpoint default day,           !- Name
  {8742eebb-8ff1-43b9-aedf-be6af3edcc00}, !- Schedule Type Limits Name
  ,                                       !- Interpolate to Timestep
  24,                                     !- Hour 1
  0,                                      !- Minute 1
  0;                                      !- Value Until Time 1

OS:Schedule:Rule,
  {77c79137-0ecb-410d-a6e9-04eb5bdb89b1}, !- Handle
  cooling setpoint allday rule,           !- Name
  {5aececd0-ea1e-44c4-b867-3114ad8ded51}, !- Schedule Ruleset Name
  0,                                      !- Rule Order
  {3696cc30-6717-446a-8834-56f6bf2a0d17}, !- Day Schedule Name
  Yes,                                    !- Apply Sunday
  Yes,                                    !- Apply Monday
  Yes,                                    !- Apply Tuesday
  Yes,                                    !- Apply Wednesday
  Yes,                                    !- Apply Thursday
  Yes,                                    !- Apply Friday
  Yes,                                    !- Apply Saturday
  DateRange,                              !- Date Specification Type
  1,                                      !- Start Month
  1,                                      !- Start Day
  12,                                     !- End Month
  31;                                     !- End Day

OS:Schedule:Day,
  {3696cc30-6717-446a-8834-56f6bf2a0d17}, !- Handle
  cooling setpoint day,                   !- Name
  {8742eebb-8ff1-43b9-aedf-be6af3edcc00}, !- Schedule Type Limits Name
  ,                                       !- Interpolate to Timestep
  24,                                     !- Hour 1
  0,                                      !- Minute 1
  25.5555555555556;                       !- Value Until Time 1

OS:ThermostatSetpoint:DualSetpoint,
  {98625924-80d7-43c3-ae57-325e04867515}, !- Handle
  conditioned space temperature setpoint, !- Name
  {492707a2-40da-43eb-8697-872dfcc94231}, !- Heating Setpoint Temperature Schedule Name
  {5aececd0-ea1e-44c4-b867-3114ad8ded51}, !- Cooling Setpoint Temperature Schedule Name
  0;                                      !- Temperature Difference Between Cutout And Setpoint {deltaC}

OS:ScheduleTypeLimits,
  {8742eebb-8ff1-43b9-aedf-be6af3edcc00}, !- Handle
  Temperature,                            !- Name
  ,                                       !- Lower Limit Value
  ,                                       !- Upper Limit Value
  Continuous,                             !- Numeric Type
  Temperature;                            !- Unit Type

OS:Surface,
  {2900dcb1-6ea7-4295-acc5-2a35e63f16cc}, !- Handle
  Roof1,                                  !- Name
  RoofCeiling,                            !- Surface Type
  {b00c3905-0951-4e95-a5d7-abba77fa8c6b}, !- Construction Name
  {67edcb92-b397-4f73-b17b-2d9cb9023ba7}, !- Space Name
  Outdoors,                               !- Outside Boundary Condition
  ,                                       !- Outside Boundary Condition Object
  SunExposed,                             !- Sun Exposure
  WindExposed,                            !- Wind Exposure
  ,                                       !- View Factor to Ground
  ,                                       !- Number of Vertices
  -18.7742033914137, 41.5974007452599, 2.4384, !- X,Y,Z Vertex 1 {m}
  -18.7742033914137, 33.6309759081827, 6.42161241853859, !- X,Y,Z Vertex 2 {m}
  -9.86746965474012, 33.6309759081827, 6.42161241853859, !- X,Y,Z Vertex 3 {m}
  -9.86746965474012, 41.5974007452599, 2.4384; !- X,Y,Z Vertex 4 {m}

OS:AdditionalProperties,
  {b73dad99-5121-4ee1-ab07-432d2ac4de10}, !- Handle
  {2900dcb1-6ea7-4295-acc5-2a35e63f16cc}, !- Object Name
  Length,                                 !- Feature Name 1
  Double,                                 !- Feature Data Type 1
  29.221567377538118,                     !- Feature Value 1
  Width,                                  !- Feature Name 2
  Double,                                 !- Feature Data Type 2
  29.221567377538118,                     !- Feature Value 2
  Azimuth,                                !- Feature Name 3
  Integer,                                !- Feature Data Type 3
  0,                                      !- Feature Value 3
  Tilt,                                   !- Feature Name 4
  Double,                                 !- Feature Data Type 4
  0.5,                                    !- Feature Value 4
  SurfaceType,                            !- Feature Name 5
  String,                                 !- Feature Data Type 5
  Roof;                                   !- Feature Value 5

OS:ThermalZone,
  {86843cf4-d2cd-4309-9d7e-15f755af25f1}, !- Handle
  attic - vented,                         !- Name
  1,                                      !- Multiplier
  ,                                       !- Ceiling Height {m}
  126.002877704413,                       !- Volume {m3}
  ,                                       !- Floor Area {m2}
  ,                                       !- Zone Inside Convection Algorithm
  ,                                       !- Zone Outside Convection Algorithm
  ,                                       !- Zone Conditioning Equipment List Name
  {c11d7e6e-61a5-4e85-9243-7aba53615473}, !- Zone Air Inlet Port List
  {14b82509-5cbd-438b-aa86-50347498e2c4}, !- Zone Air Exhaust Port List
  {bbb5ce73-97db-4b90-88b1-1309e7a4b847}, !- Zone Air Node Name
  {f6d9198d-524b-409c-a39e-b30cc7872016}, !- Zone Return Air Port List
  ,                                       !- Primary Daylighting Control Name
  ,                                       !- Fraction of Zone Controlled by Primary Daylighting Control
  ,                                       !- Secondary Daylighting Control Name
  ,                                       !- Fraction of Zone Controlled by Secondary Daylighting Control
  ,                                       !- Illuminance Map Name
  ,                                       !- Group Rendering Name
  ,                                       !- Thermostat Name
  No;                                     !- Use Ideal Air Loads

OS:Node,
  {da834921-6b97-4a14-8724-31d545ccfd20}, !- Handle
  Node 2,                                 !- Name
  {bbb5ce73-97db-4b90-88b1-1309e7a4b847}, !- Inlet Port
  ;                                       !- Outlet Port

OS:Connection,
  {bbb5ce73-97db-4b90-88b1-1309e7a4b847}, !- Handle
  {86843cf4-d2cd-4309-9d7e-15f755af25f1}, !- Source Object
  11,                                     !- Outlet Port
  {da834921-6b97-4a14-8724-31d545ccfd20}, !- Target Object
  2;                                      !- Inlet Port

OS:PortList,
  {c11d7e6e-61a5-4e85-9243-7aba53615473}, !- Handle
  {86843cf4-d2cd-4309-9d7e-15f755af25f1}; !- HVAC Component

OS:PortList,
  {14b82509-5cbd-438b-aa86-50347498e2c4}, !- Handle
  {86843cf4-d2cd-4309-9d7e-15f755af25f1}; !- HVAC Component

OS:PortList,
  {f6d9198d-524b-409c-a39e-b30cc7872016}, !- Handle
  {86843cf4-d2cd-4309-9d7e-15f755af25f1}; !- HVAC Component

OS:Sizing:Zone,
  {4161eedc-e43a-46c3-a039-6c9def86bd84}, !- Handle
  {86843cf4-d2cd-4309-9d7e-15f755af25f1}, !- Zone or ZoneList Name
  SupplyAirTemperature,                   !- Zone Cooling Design Supply Air Temperature Input Method
  14,                                     !- Zone Cooling Design Supply Air Temperature {C}
  11.11,                                  !- Zone Cooling Design Supply Air Temperature Difference {deltaC}
  SupplyAirTemperature,                   !- Zone Heating Design Supply Air Temperature Input Method
  40,                                     !- Zone Heating Design Supply Air Temperature {C}
  11.11,                                  !- Zone Heating Design Supply Air Temperature Difference {deltaC}
  0.0085,                                 !- Zone Cooling Design Supply Air Humidity Ratio {kg-H2O/kg-air}
  0.008,                                  !- Zone Heating Design Supply Air Humidity Ratio {kg-H2O/kg-air}
  ,                                       !- Zone Heating Sizing Factor
  ,                                       !- Zone Cooling Sizing Factor
  DesignDay,                              !- Cooling Design Air Flow Method
  ,                                       !- Cooling Design Air Flow Rate {m3/s}
  ,                                       !- Cooling Minimum Air Flow per Zone Floor Area {m3/s-m2}
  ,                                       !- Cooling Minimum Air Flow {m3/s}
  ,                                       !- Cooling Minimum Air Flow Fraction
  DesignDay,                              !- Heating Design Air Flow Method
  ,                                       !- Heating Design Air Flow Rate {m3/s}
  ,                                       !- Heating Maximum Air Flow per Zone Floor Area {m3/s-m2}
  ,                                       !- Heating Maximum Air Flow {m3/s}
  ,                                       !- Heating Maximum Air Flow Fraction
  No,                                     !- Account for Dedicated Outdoor Air System
  NeutralSupplyAir,                       !- Dedicated Outdoor Air System Control Strategy
  autosize,                               !- Dedicated Outdoor Air Low Setpoint Temperature for Design {C}
  autosize,                               !- Dedicated Outdoor Air High Setpoint Temperature for Design {C}
  Sensible Load Only No Latent Load,      !- Zone Load Sizing Method
  HumidityRatioDifference,                !- Zone Latent Cooling Design Supply Air Humidity Ratio Input Method
  ,                                       !- Zone Dehumidification Design Supply Air Humidity Ratio {kgWater/kgDryAir}
  0.005,                                  !- Zone Cooling Design Supply Air Humidity Ratio Difference {kgWater/kgDryAir}
  HumidityRatioDifference,                !- Zone Latent Heating Design Supply Air Humidity Ratio Input Method
  ,                                       !- Zone Humidification Design Supply Air Humidity Ratio {kgWater/kgDryAir}
  0.005,                                  !- Zone Humidification Design Supply Air Humidity Ratio Difference {kgWater/kgDryAir}
  ,                                       !- Zone Humidistat Dehumidification Set Point Schedule Name
  ,                                       !- Zone Humidistat Humidification Set Point Schedule Name
  ,                                       !- Design Zone Air Distribution Effectiveness in Cooling Mode
  ,                                       !- Design Zone Air Distribution Effectiveness in Heating Mode
  ,                                       !- Design Zone Secondary Recirculation Fraction {dimensionless}
  ,                                       !- Design Minimum Zone Ventilation Efficiency {dimensionless}
  Coincident;                             !- Sizing Option

OS:ZoneHVAC:EquipmentList,
  {98f1a213-52a6-4f28-9347-c4a9e4605115}, !- Handle
  Zone HVAC Equipment List 2,             !- Name
  {86843cf4-d2cd-4309-9d7e-15f755af25f1}; !- Thermal Zone

OS:AdditionalProperties,
  {595c4136-ced1-414f-bbd5-8b04402121ee}, !- Handle
  {86843cf4-d2cd-4309-9d7e-15f755af25f1}, !- Object Name
  ObjectType,                             !- Feature Name 1
  String,                                 !- Feature Data Type 1
  attic - vented;                         !- Feature Value 1

OS:Space,
  {67edcb92-b397-4f73-b17b-2d9cb9023ba7}, !- Handle
  attic - vented 1,                       !- Name
  ,                                       !- Space Type Name
  ,                                       !- Default Construction Set Name
  ,                                       !- Default Schedule Set Name
  ,                                       !- Direction of Relative North {deg}
  ,                                       !- X Origin {m}
  ,                                       !- Y Origin {m}
  ,                                       !- Z Origin {m}
  ,                                       !- Building Story Name
  {86843cf4-d2cd-4309-9d7e-15f755af25f1}, !- Thermal Zone Name
  ,                                       !- Part of Total Floor Area
  ,                                       !- Design Specification Outdoor Air Object Name
  ,                                       !- Building Unit Name
  126.002877704413;                       !- Volume {m3}

OS:Material,
  {f7c4d339-880a-4540-8545-8f927f7e8f61}, !- Handle
  asphalt or fiberglass shingles,         !- Name
  Rough,                                  !- Roughness
  0.00635,                                !- Thickness {m}
  0.162714,                               !- Conductivity {W/m-K}
  1121.4,                                 !- Density {kg/m3}
  1465.45,                                !- Specific Heat {J/kg-K}
  0.9,                                    !- Thermal Absorptance
  0.85,                                   !- Solar Absorptance