
OS:Version,
  {dac2d467-f53d-4242-8288-2331d2f68d12}, !- Handle
  3.10.0;                                 !- Version Identifier

OS:SimulationControl,
  {11588a2a-86ea-4244-a037-742d7424c784}, !- Handle
  ,                                       !- Do Zone Sizing Calculation
  ,                                       !- Do System Sizing Calculation
  ,                                       !- Do Plant Sizing Calculation
  No;                                     !- Run Simulation for Sizing Periods

OS:Timestep,
  {af68b051-23b6-428e-ab5c-fb68b2cd08ab}, !- Handle
  1;                                      !- Number of Timesteps per Hour

OS:ShadowCalculation,
  {9028fd09-f55b-4124-90ec-f2ac68540172}, !- Handle
  PolygonClipping,                        !- Shading Calculation Method
  ,                                       !- Shading Calculation Update Frequency Method
  20,                                     !- Shading Calculation Update Frequency
  200,                                    !- Maximum Figures in Shadow Overlap Calculations
  ,                                       !- Polygon Clipping Algorithm
  512,                                    !- Pixel Counting Resolution
  ,                                       !- Sky Diffuse Modeling Algorithm
  No,                                     !- Output External Shading Calculation Results
  No,                                     !- Disable Self-Shading Within Shading Zone Groups
  No;                                     !- Disable Self-Shading From Shading Zone Groups to Other Zones

OS:SurfaceConvectionAlgorithm:Outside,
  {b96f0c73-26bb-44ad-a25e-6d1cc9df3049}, !- Handle
  DOE-2;                                  !- Algorithm

OS:SurfaceConvectionAlgorithm:Inside,
  {5b0f428e-2971-4762-9031-33f6d8dca98e}, !- Handle
  TARP;                                   !- Algorithm

OS:ZoneCapacitanceMultiplier:ResearchSpecial,
  {4c5c17ef-da39-43ad-b1e2-4c0dedb1612d}, !- Handle
  7,                                      !- Temperature Capacity Multiplier
  15,                                     !- Humidity Capacity Multiplier
  ;                                       !- Carbon Dioxide Capacity Multiplier

OS:ConvergenceLimits,
  {dc056c3a-1c85-4844-ba2b-a9d674721a8c}, !- Handle
  0;                                      !- Minimum System Timestep {minutes}

OS:RunPeriod,
  {16b366a6-5804-4966-a463-33592fc5194f}, !- Handle
  Run Period 1,                           !- Name
  1,                                      !- Begin Month
  1,                                      !- Begin Day of Month
  12,                                     !- End Month
  31,                                     !- End Day of Month
  ,                                       !- Use Weather File Holidays and Special Days
  ,                                       !- Use Weather File Daylight Saving Period
  ,                                       !- Apply Weekend Holiday Rule
  ,                                       !- Use Weather File Rain Indicators
  ,                                       !- Use Weather File Snow Indicators
  ;                                       !- Number of Times Runperiod to be Repeated

OS:PerformancePrecisionTradeoffs,
  {8bbe71a7-cf48-4f58-882b-40c4ba98b2bb}, !- Handle
  ,                                       !- Use Coil Direct Solutions
  CarrollMRT;                             !- Zone Radiant Exchange Algorithm

OS:WeatherFile,
  {a9d13982-c4be-45b1-aceb-6de93f6e3f0d}, !- Handle
  Buffalo Niagara Intl Ap,                !- City
  NY,                                     !- State Province Region
  USA,                                    !- Country
  TMY3,                                   !- Data Source
  725280,                                 !- WMO Number
  42.93,                                  !- Latitude {deg}
  -78.73,                                 !- Longitude {deg}
  -5,                                     !- Time Zone {hr}
  215,                                    !- Elevation {m}
  /Users/nmoore/github/urbanopt-example-geojson-project/example_project/weather/USA_NY_Buffalo-Greater.Buffalo.Intl.AP.725280_TMY3.epw, !- Url
  6B50E0FF,                               !- Checksum
  ,                                       !- Start Date Actual Year
  Sunday;                                 !- Start Day of Week

OS:YearDescription,
  {23c3f788-948f-4e4f-8774-980c3aa07a52}, !- Handle
  2007,                                   !- Calendar Year
  ,                                       !- Day of Week for Start Day
  ;                                       !- Is Leap Year

OS:Site,
  {37cef2c5-834d-46b8-9c4e-1788b4964d8f}, !- Handle
  Buffalo Niagara Intl Ap_NY,             !- Name
  42.93,                                  !- Latitude {deg}
  -78.73,                                 !- Longitude {deg}
  -5,                                     !- Time Zone {hr}
  215,                                    !- Elevation {m}
  Suburbs,                                !- Terrain
  Yes;                                    !- Keep Site Location Information

OS:RunPeriodControl:DaylightSavingTime,
  {12086ebb-dced-45e9-a759-d04048481e08}, !- Handle
  Mar 12,                                 !- Start Date
  Nov 5;                                  !- End Date

OS:Site:GroundTemperature:Shallow,
  {d9de86cd-e1b7-47f0-8966-b6dbbde73f6d}, !- Handle
  4.30207395723828,                       !- January Surface Ground Temperature {C}
  2.29327249652502,                       !- February Surface Ground Temperature {C}
  2.13240047156047,                       !- March Surface Ground Temperature {C}
  3.08567940719286,                       !- April Surface Ground Temperature {C}
  6.91256312497526,                       !- May Surface Ground Temperature {C}
  10.7216195949507,                       !- June Surface Ground Temperature {C}
  14.0238679822574,                       !- July Surface Ground Temperature {C}
  16.1157611184724,                       !- August Surface Ground Temperature {C}
  16.2934789303462,                       !- September Surface Ground Temperature {C}
  14.5920754632847,                       !- October Surface Ground Temperature {C}
  11.374036348653,                        !- November Surface Ground Temperature {C}
  7.68182621661674;                       !- December Surface Ground Temperature {C}

OS:ThermalZone,
  {22ac7548-ac22-4f14-ae35-02b20d2cd7ac}, !- Handle
  conditioned space,                      !- Name
  1,                                      !- Multiplier
  ,                                       !- Ceiling Height {m}
  692.06373070848,                        !- Volume {m3}
  ,                                       !- Floor Area {m2}
  ,                                       !- Zone Inside Convection Algorithm
  ,                                       !- Zone Outside Convection Algorithm
  ,                                       !- Zone Conditioning Equipment List Name
  {f9220f56-484d-4ea5-9a9e-1aeaee3ea525}, !- Zone Air Inlet Port List
  {fb7dcf99-d776-4602-a32e-f7d44974f0a5}, !- Zone Air Exhaust Port List
  {6fd8a523-29de-4aa7-8714-e39d567c6e9c}, !- Zone Air Node Name
  {ac138764-43f6-41a4-9521-0f4d3ff0e617}, !- Zone Return Air Port List
  ,                                       !- Primary Daylighting Control Name
  ,                                       !- Fraction of Zone Controlled by Primary Daylighting Control
  ,                                       !- Secondary Daylighting Control Name
  ,                                       !- Fraction of Zone Controlled by Secondary Daylighting Control
  ,                                       !- Illuminance Map Name
  ,                                       !- Group Rendering Name
  {9edf2531-f027-4265-a75f-f72805da48b1}, !- Thermostat Name
  No;                                     !- Use Ideal Air Loads

OS:Node,
  {389b8ee8-52ae-4ba9-aad4-172847031963}, !- Handle
  Node 1,                                 !- Name
  {6fd8a523-29de-4aa7-8714-e39d567c6e9c}, !- Inlet Port
  ;                                       !- Outlet Port

OS:Connection,
  {6fd8a523-29de-4aa7-8714-e39d567c6e9c}, !- Handle
  {22ac7548-ac22-4f14-ae35-02b20d2cd7ac}, !- Source Object
  11,                                     !- Outlet Port
  {389b8ee8-52ae-4ba9-aad4-172847031963}, !- Target Object
  2;                                      !- Inlet Port

OS:PortList,
  {f9220f56-484d-4ea5-9a9e-1aeaee3ea525}, !- Handle
  {22ac7548-ac22-4f14-ae35-02b20d2cd7ac}, !- HVAC Component
  {0d2519c0-47b3-4c60-aedc-98f3987dbcca}; !- Port 1

OS:PortList,
  {fb7dcf99-d776-4602-a32e-f7d44974f0a5}, !- Handle
  {22ac7548-ac22-4f14-ae35-02b20d2cd7ac}; !- HVAC Component

OS:PortList,
  {ac138764-43f6-41a4-9521-0f4d3ff0e617}, !- Handle
  {22ac7548-ac22-4f14-ae35-02b20d2cd7ac}, !- HVAC Component
  {975b4c97-d7a6-463b-a790-b767121fedf2}; !- Port 1

OS:Sizing:Zone,
  {d1ba681c-c6ab-4334-957d-0d9b7eaba611}, !- Handle
  {22ac7548-ac22-4f14-ae35-02b20d2cd7ac}, !- Zone or ZoneList Name
  SupplyAirTemperature,                   !- Zone Cooling Design Supply Air Temperature Input Method
  14,                                     !- Zone Cooling Design Supply Air Temperature {C}
  11.11,                                  !- Zone Cooling Design Supply Air Temperature Difference {deltaC}
  SupplyAirTemperature,                   !- Zone Heating Design Supply Air Temperature Input Method
  40,                                     !- Zone Heating Design Supply Air Temperature {C}
  11.11,                                  !- Zone Heating Design Supply Air Temperature Difference {deltaC}
  0.0085,                                 !- Zone Cooling Design Supply Air Humidity Ratio {kg-H2O/kg-air}
  0.008,                                  !- Zone Heating Design Supply Air Humidity Ratio {kg-H2O/kg-air}
  ,                                       !- Zone Heating Sizing Factor
  ,                                       !- Zone Cooling Sizing Factor
  DesignDay,                              !- Cooling Design Air Flow Method
  ,                                       !- Cooling Design Air Flow Rate {m3/s}
  ,                                       !- Cooling Minimum Air Flow per Zone Floor Area {m3/s-m2}
  ,                                       !- Cooling Minimum Air Flow {m3/s}
  ,                                       !- Cooling Minimum Air Flow Fraction
  DesignDay,                              !- Heating Design Air Flow Method
  ,                                       !- Heating Design Air Flow Rate {m3/s}
  ,                                       !- Heating Maximum Air Flow per Zone Floor Area {m3/s-m2}
  ,                                       !- Heating Maximum Air Flow {m3/s}
  ,                                       !- Heating Maximum Air Flow Fraction
  No,                                     !- Account for Dedicated Outdoor Air System
  NeutralSupplyAir,                       !- Dedicated Outdoor Air System Control Strategy
  autosize,                               !- Dedicated Outdoor Air Low Setpoint Temperature for Design {C}
  autosize,                               !- Dedicated Outdoor Air High Setpoint Temperature for Design {C}
  Sensible Load Only No Latent Load,      !- Zone Load Sizing Method
  HumidityRatioDifference,                !- Zone Latent Cooling Design Supply Air Humidity Ratio Input Method
  ,                                       !- Zone Dehumidification Design Supply Air Humidity Ratio {kgWater/kgDryAir}
  0.005,                                  !- Zone Cooling Design Supply Air Humidity Ratio Difference {kgWater/kgDryAir}
  HumidityRatioDifference,                !- Zone Latent Heating Design Supply Air Humidity Ratio Input Method
  ,                                       !- Zone Humidification Design Supply Air Humidity Ratio {kgWater/kgDryAir}
  0.005,                                  !- Zone Humidification Design Supply Air Humidity Ratio Difference {kgWater/kgDryAir}
  ,                                       !- Zone Humidistat Dehumidification Set Point Schedule Name
  ,                                       !- Zone Humidistat Humidification Set Point Schedule Name
  ,                                       !- Design Zone Air Distribution Effectiveness in Cooling Mode
  ,                                       !- Design Zone Air Distribution Effectiveness in Heating Mode
  ,                                       !- Design Zone Secondary Recirculation Fraction {dimensionless}
  ,                                       !- Design Minimum Zone Ventilation Efficiency {dimensionless}
  Coincident;                             !- Sizing Option

OS:ZoneHVAC:EquipmentList,
  {e0459642-7298-4b92-98cf-60731b38f8e5}, !- Handle
  Zone HVAC Equipment List 1,             !- Name
  {22ac7548-ac22-4f14-ae35-02b20d2cd7ac}, !- Thermal Zone
  ,                                       !- Load Distribution Scheme
  {d3fcdde3-a144-41c9-872c-7a46483cac5d}, !- Zone Equipment 1
  1,                                      !- Zone Equipment Cooling Sequence 1
  1,                                      !- Zone Equipment Heating or No-Load Sequence 1
  {c2da66b8-cc8a-47dd-9d9e-b8ff0f7b116a}, !- Zone Equipment Sequential Cooling Fraction Schedule Name 1
  {58a3180b-162b-4e72-b5ff-1186dc68a2bc}; !- Zone Equipment Sequential Heating Fraction Schedule Name 1

OS:AdditionalProperties,
  {2105029a-d0f4-4877-99af-eb89f2c15233}, !- Handle
  {22ac7548-ac22-4f14-ae35-02b20d2cd7ac}, !- Object Name
  ObjectType,                             !- Feature Name 1
  String,                                 !- Feature Data Type 1
  conditioned space;                      !- Feature Value 1

OS:Space,
  {d04133c9-2ea8-4473-afbc-bab33b540202}, !- Handle
  conditioned space 1,                    !- Name
  ,                                       !- Space Type Name
  ,                                       !- Default Construction Set Name
  ,                                       !- Default Schedule Set Name
  ,                                       !- Direction of Relative North {deg}
  ,                                       !- X Origin {m}
  ,                                       !- Y Origin {m}
  ,                                       !- Z Origin {m}
  ,                                       !- Building Story Name
  {22ac7548-ac22-4f14-ae35-02b20d2cd7ac}, !- Thermal Zone Name
  ,                                       !- Part of Total Floor Area
  ,                                       !- Design Specification Outdoor Air Object Name
  ,                                       !- Building Unit Name
  692.06373070848;                        !- Volume {m3}

OS:Schedule:Ruleset,
  {ff7de1ec-dcdd-4fb8-8587-9f8baec09bea}, !- Handle
  heating setpoint,                       !- Name
  {d92bd84d-9654-4611-8ad4-119f30b88299}, !- Schedule Type Limits Name
  {c8e7593c-d5d3-4dc6-b913-51c2bcf4c272}; !- Default Day Schedule Name

OS:Schedule:Day,
  {c8e7593c-d5d3-4dc6-b913-51c2bcf4c272}, !- Handle
  heating setpoint default day,           !- Name
  {d92bd84d-9654-4611-8ad4-119f30b88299}, !- Schedule Type Limits Name
  ,                                       !- Interpolate to Timestep
  24,                                     !- Hour 1
  0,                                      !- Minute 1
  0;                                      !- Value Until Time 1

OS:Schedule:Rule,
  {b0bc3bb2-dbf0-4dc5-882b-9387b658f061}, !- Handle
  heating setpoint allday rule,           !- Name
  {ff7de1ec-dcdd-4fb8-8587-9f8baec09bea}, !- Schedule Ruleset Name
  0,                                      !- Rule Order
  {57308ce1-f941-436b-826f-56ecf98ec810}, !- Day Schedule Name
  Yes,                                    !- Apply Sunday
  Yes,                                    !- Apply Monday
  Yes,                                    !- Apply Tuesday
  Yes,                                    !- Apply Wednesday
  Yes,                                    !- Apply Thursday
  Yes,                                    !- Apply Friday
  Yes,                                    !- Apply Saturday
  DateRange,                              !- Date Specification Type
  1,                                      !- Start Month
  1,                                      !- Start Day
  12,                                     !- End Month
  31;                                     !- End Day

OS:Schedule:Day,
  {57308ce1-f941-436b-826f-56ecf98ec810}, !- Handle
  heating setpoint day,                   !- Name
  {d92bd84d-9654-4611-8ad4-119f30b88299}, !- Schedule Type Limits Name
  ,                                       !- Interpolate to Timestep
  24,                                     !- Hour 1
  0,                                      !- Minute 1
  20;                                     !- Value Until Time 1

OS:Schedule:Ruleset,
  {3da767af-01ed-4cc0-a369-2e849558e127}, !- Handle
  cooling setpoint,                       !- Name
  {d92bd84d-9654-4611-8ad4-119f30b88299}, !- Schedule Type Limits Name
  {126a179f-01eb-42cf-93f8-fd1cf8bea4cb}; !- Default Day Schedule Name

OS:Schedule:Day,
  {126a179f-01eb-42cf-93f8-fd1cf8bea4cb}, !- Handle
  cooling setpoint default day,           !- Name
  {d92bd84d-9654-4611-8ad4-119f30b88299}, !- Schedule Type Limits Name
  ,                                       !- Interpolate to Timestep
  24,                                     !- Hour 1
  0,                                      !- Minute 1
  0;                                      !- Value Until Time 1

OS:Schedule:Rule,
  {526d9e90-9134-44fc-88b4-ddde5ea4ae9f}, !- Handle
  cooling setpoint allday rule,           !- Name
  {3da767af-01ed-4cc0-a369-2e849558e127}, !- Schedule Ruleset Name
  0,                                      !- Rule Order
  {58d26f4f-879e-408e-9c88-908b3a4a5dd2}, !- Day Schedule Name
  Yes,                                    !- Apply Sunday
  Yes,                                    !- Apply Monday
  Yes,                                    !- Apply Tuesday
  Yes,                                    !- Apply Wednesday
  Yes,                                    !- Apply Thursday
  Yes,                                    !- Apply Friday
  Yes,                                    !- Apply Saturday
  DateRange,                              !- Date Specification Type
  1,                                      !- Start Month
  1,                                      !- Start Day
  12,                                     !- End Month
  31;                                     !- End Day

OS:Schedule:Day,
  {58d26f4f-879e-408e-9c88-908b3a4a5dd2}, !- Handle
  cooling setpoint day,                   !- Name
  {d92bd84d-9654-4611-8ad4-119f30b88299}, !- Schedule Type Limits Name
  ,                                       !- Interpolate to Timestep
  24,                                     !- Hour 1
  0,                                      !- Minute 1
  25.5555555555556;                       !- Value Until Time 1

OS:ThermostatSetpoint:DualSetpoint,
  {9edf2531-f027-4265-a75f-f72805da48b1}, !- Handle
  conditioned space temperature setpoint, !- Name
  {ff7de1ec-dcdd-4fb8-8587-9f8baec09bea}, !- Heating Setpoint Temperature Schedule Name
  {3da767af-01ed-4cc0-a369-2e849558e127}, !- Cooling Setpoint Temperature Schedule Name
  0;                                      !- Temperature Difference Between Cutout And Setpoint {deltaC}

OS:ScheduleTypeLimits,
  {d92bd84d-9654-4611-8ad4-119f30b88299}, !- Handle
  Temperature,                            !- Name
  ,                                       !- Lower Limit Value
  ,                                       !- Upper Limit Value
  Continuous,                             !- Numeric Type
  Temperature;                            !- Unit Type

OS:Surface,
  {822b3680-713c-4680-8d1a-3ebed8c5a9ee}, !- Handle
  Roof1,                                  !- Name
  RoofCeiling,                            !- Surface Type
  {b079bcb6-7904-45a2-b773-940f27ca51c2}, !- Construction Name
  {af08c641-0f9c-4163-919a-b2d983cdf76a}, !- Space Name
  Outdoors,                               !- Outside Boundary Condition
  ,                                       !- Outside Boundary Condition Object
  SunExposed,                             !- Sun Exposure
  WindExposed,                            !- Wind Exposure
  ,                                       !- View Factor to Ground
  ,                                       !- Number of Vertices
  -18.7742033914137, 41.5974007452599, 2.4384, !- X,Y,Z Vertex 1 {m}
  -18.7742033914137, 33.6309759081827, 6.42161241853859, !- X,Y,Z Vertex 2 {m}
  -9.86746965474012, 33.6309759081827, 6.42161241853859, !- X,Y,Z Vertex 3 {m}
  -9.86746965474012, 41.5974007452599, 2.4384; !- X,Y,Z Vertex 4 {m}

OS:AdditionalProperties,
  {a1e603be-377a-4fcc-9688-339af3d491f4}, !- Handle
  {822b3680-713c-4680-8d1a-3ebed8c5a9ee}, !- Object Name
  Length,                                 !- Feature Name 1
  Double,                                 !- Feature Data Type 1
  29.221567377538118,                     !- Feature Value 1
  Width,                                  !- Feature Name 2
  Double,                                 !- Feature Data Type 2
  29.221567377538118,                     !- Feature Value 2
  Azimuth,                                !- Feature Name 3
  Integer,                                !- Feature Data Type 3
  0,                                      !- Feature Value 3
  Tilt,                                   !- Feature Name 4
  Double,                                 !- Feature Data Type 4
  0.5,                                    !- Feature Value 4
  SurfaceType,                            !- Feature Name 5
  String,                                 !- Feature Data Type 5
  Roof;                                   !- Feature Value 5

OS:ThermalZone,
  {bbc43e38-429f-4767-9517-8fc71cd7c9b7}, !- Handle
  attic - vented,                         !- Name
  1,                                      !- Multiplier
  ,                                       !- Ceiling Height {m}
  126.003218814318,                       !- Volume {m3}
  ,                                       !- Floor Area {m2}
  ,                                       !- Zone Inside Convection Algorithm
  ,                                       !- Zone Outside Convection Algorithm
  ,                                       !- Zone Conditioning Equipment List Name
  {8554f30d-f240-4f9a-8cf6-f4df3b7179fd}, !- Zone Air Inlet Port List
  {2cd82a71-43c4-4b44-a626-a5705b8661fc}, !- Zone Air Exhaust Port List
  {ca978461-2cf1-46bc-9b48-7f61d01c835a}, !- Zone Air Node Name
  {4260d638-04f3-430c-a405-0d9a767e9aa5}, !- Zone Return Air Port List
  ,                                       !- Primary Daylighting Control Name
  ,                                       !- Fraction of Zone Controlled by Primary Daylighting Control
  ,                                       !- Secondary Daylighting Control Name
  ,                                       !- Fraction of Zone Controlled by Secondary Daylighting Control
  ,                                       !- Illuminance Map Name
  ,                                       !- Group Rendering Name
  ,                                       !- Thermostat Name
  No;                                     !- Use Ideal Air Loads

OS:Node,
  {caab673a-44d0-4bce-a904-71dcc4bb435d}, !- Handle
  Node 2,                                 !- Name
  {ca978461-2cf1-46bc-9b48-7f61d01c835a}, !- Inlet Port
  ;                                       !- Outlet Port

OS:Connection,
  {ca978461-2cf1-46bc-9b48-7f61d01c835a}, !- Handle
  {bbc43e38-429f-4767-9517-8fc71cd7c9b7}, !- Source Object
  11,                                     !- Outlet Port
  {caab673a-44d0-4bce-a904-71dcc4bb435d}, !- Target Object
  2;                                      !- Inlet Port

OS:PortList,
  {8554f30d-f240-4f9a-8cf6-f4df3b7179fd}, !- Handle
  {bbc43e38-429f-4767-9517-8fc71cd7c9b7}; !- HVAC Component

OS:PortList,
  {2cd82a71-43c4-4b44-a626-a5705b8661fc}, !- Handle
  {bbc43e38-429f-4767-9517-8fc71cd7c9b7}; !- HVAC Component

OS:PortList,
  {4260d638-04f3-430c-a405-0d9a767e9aa5}, !- Handle
  {bbc43e38-429f-4767-9517-8fc71cd7c9b7}; !- HVAC Component

OS:Sizing:Zone,
  {9e34d050-fcf0-4443-a61c-f5efed6803b8}, !- Handle
  {bbc43e38-429f-4767-9517-8fc71cd7c9b7}, !- Zone or ZoneList Name
  SupplyAirTemperature,                   !- Zone Cooling Design Supply Air Temperature Input Method
  14,                                     !- Zone Cooling Design Supply Air Temperature {C}
  11.11,                                  !- Zone Cooling Design Supply Air Temperature Difference {deltaC}
  SupplyAirTemperature,                   !- Zone Heating Design Supply Air Temperature Input Method
  40,                                     !- Zone Heating Design Supply Air Temperature {C}
  11.11,                                  !- Zone Heating Design Supply Air Temperature Difference {deltaC}
  0.0085,                                 !- Zone Cooling Design Supply Air Humidity Ratio {kg-H2O/kg-air}
  0.008,                                  !- Zone Heating Design Supply Air Humidity Ratio {kg-H2O/kg-air}
  ,                                       !- Zone Heating Sizing Factor
  ,                                       !- Zone Cooling Sizing Factor
  DesignDay,                              !- Cooling Design Air Flow Method
  ,                                       !- Cooling Design Air Flow Rate {m3/s}
  ,                                       !- Cooling Minimum Air Flow per Zone Floor Area {m3/s-m2}
  ,                                       !- Cooling Minimum Air Flow {m3/s}
  ,                                       !- Cooling Minimum Air Flow Fraction
  DesignDay,                              !- Heating Design Air Flow Method
  ,                                       !- Heating Design Air Flow Rate {m3/s}
  ,                                       !- Heating Maximum Air Flow per Zone Floor Area {m3/s-m2}
  ,                                       !- Heating Maximum Air Flow {m3/s}
  ,                                       !- Heating Maximum Air Flow Fraction
  No,                                     !- Account for Dedicated Outdoor Air System
  NeutralSupplyAir,                       !- Dedicated Outdoor Air System Control Strategy
  autosize,                               !- Dedicated Outdoor Air Low Setpoint Temperature for Design {C}
  autosize,                               !- Dedicated Outdoor Air High Setpoint Temperature for Design {C}
  Sensible Load Only No Latent Load,      !- Zone Load Sizing Method
  HumidityRatioDifference,                !- Zone Latent Cooling Design Supply Air Humidity Ratio Input Method
  ,                                       !- Zone Dehumidification Design Supply Air Humidity Ratio {kgWater/kgDryAir}
  0.005,                                  !- Zone Cooling Design Supply Air Humidity Ratio Difference {kgWater/kgDryAir}
  HumidityRatioDifference,                !- Zone Latent Heating Design Supply Air Humidity Ratio Input Method
  ,                                       !- Zone Humidification Design Supply Air Humidity Ratio {kgWater/kgDryAir}
  0.005,                                  !- Zone Humidification Design Supply Air Humidity Ratio Difference {kgWater/kgDryAir}
  ,                                       !- Zone Humidistat Dehumidification Set Point Schedule Name
  ,                                       !- Zone Humidistat Humidification Set Point Schedule Name
  ,                                       !- Design Zone Air Distribution Effectiveness in Cooling Mode
  ,                                       !- Design Zone Air Distribution Effectiveness in Heating Mode
  ,                                       !- Design Zone Secondary Recirculation Fraction {dimensionless}
  ,                                       !- Design Minimum Zone Ventilation Efficiency {dimensionless}
  Coincident;                             !- Sizing Option

OS:ZoneHVAC:EquipmentList,
  {fead2c35-8d7a-440e-bf05-af9ce1b28602}, !- Handle
  Zone HVAC Equipment List 2,             !- Name
  {bbc43e38-429f-4767-9517-8fc71cd7c9b7}; !- Thermal Zone

OS:AdditionalProperties,
  {482acdf3-a48d-4244-8783-2b5149f70821}, !- Handle
  {bbc43e38-429f-4767-9517-8fc71cd7c9b7}, !- Object Name
  ObjectType,                             !- Feature Name 1
  String,                                 !- Feature Data Type 1
  attic - vented;                         !- Feature Value 1

OS:Space,
  {af08c641-0f9c-4163-919a-b2d983cdf76a}, !- Handle
  attic - vented 1,                       !- Name
  ,                                       !- Space Type Name
  ,                                       !- Default Construction Set Name
  ,                                       !- Default Schedule Set Name
  ,                                       !- Direction of Relative North {deg}
  ,                                       !- X Origin {m}
  ,                                       !- Y Origin {m}
  ,                                       !- Z Origin {m}
  ,                                       !- Building Story Name
  {bbc43e38-429f-4767-9517-8fc71cd7c9b7}, !- Thermal Zone Name
  ,                                       !- Part of Total Floor Area
  ,                                       !- Design Specification Outdoor Air Object Name
  ,                                       !- Building Unit Name
  126.003218814318;                       !- Volume {m3}

OS:Material,
  {da5ae16d-5bc6-426d-aff3-0cb161c5f959}, !- Handle
  asphalt or fiberglass shingles,         !- Name
  Rough,                                  !- Roughness
  0.00635,                                !- Thickness {m}
  0.162714,                               !- Conductivity {W/m-K}
  1121.4,                                 !- Density {kg/m3}
  1465.45,                                !- Specific Heat {J/kg-K}
  0.9,                                    !- Thermal Absorptance
  0.85,                                   !- Solar Absorptance