
OS:Version,
  {e7c09faa-c86e-4d27-9be3-a69c30eee369}, !- Handle
  3.9.0;                                  !- Version Identifier

OS:SimulationControl,
  {08cdad76-9116-4d0a-8c14-b9576f651cf4}, !- Handle
  ,                                       !- Do Zone Sizing Calculation
  ,                                       !- Do System Sizing Calculation
  ,                                       !- Do Plant Sizing Calculation
  No;                                     !- Run Simulation for Sizing Periods

OS:Timestep,
  {57f6d596-84ac-4cc8-90ef-622e6fedadc5}, !- Handle
  1;                                      !- Number of Timesteps per Hour

OS:ShadowCalculation,
  {6f3e9b70-1b7a-4edc-ab3e-0c56bfc9577d}, !- Handle
  PolygonClipping,                        !- Shading Calculation Method
  ,                                       !- Shading Calculation Update Frequency Method
  20,                                     !- Shading Calculation Update Frequency
  200,                                    !- Maximum Figures in Shadow Overlap Calculations
  ,                                       !- Polygon Clipping Algorithm
  512,                                    !- Pixel Counting Resolution
  ,                                       !- Sky Diffuse Modeling Algorithm
  No,                                     !- Output External Shading Calculation Results
  No,                                     !- Disable Self-Shading Within Shading Zone Groups
  No;                                     !- Disable Self-Shading From Shading Zone Groups to Other Zones

OS:SurfaceConvectionAlgorithm:Outside,
  {91e04baf-ae8a-4a0c-b997-81b73757118f}, !- Handle
  DOE-2;                                  !- Algorithm

OS:SurfaceConvectionAlgorithm:Inside,
  {4f777968-3074-48af-9ae9-05cfb67bfd8c}, !- Handle
  TARP;                                   !- Algorithm

OS:ZoneCapacitanceMultiplier:ResearchSpecial,
  {f1c242b6-45d9-4206-9cc3-feecaf5d27f2}, !- Handle
  7,                                      !- Temperature Capacity Multiplier
  15,                                     !- Humidity Capacity Multiplier
  ;                                       !- Carbon Dioxide Capacity Multiplier

OS:ConvergenceLimits,
  {38bae0b2-abbb-4be4-997d-600f908a4d8a}, !- Handle
  0;                                      !- Minimum System Timestep {minutes}

OS:RunPeriod,
  {9d0bb9e3-9de2-424b-b0c7-1995d314ea0e}, !- Handle
  Run Period 1,                           !- Name
  1,                                      !- Begin Month
  1,                                      !- Begin Day of Month
  12,                                     !- End Month
  31,                                     !- End Day of Month
  ,                                       !- Use Weather File Holidays and Special Days
  ,                                       !- Use Weather File Daylight Saving Period
  ,                                       !- Apply Weekend Holiday Rule
  ,                                       !- Use Weather File Rain Indicators
  ,                                       !- Use Weather File Snow Indicators
  ;                                       !- Number of Times Runperiod to be Repeated

OS:PerformancePrecisionTradeoffs,
  {19882a16-6b99-42fa-b3c2-a219a25dbae8}, !- Handle
  ,                                       !- Use Coil Direct Solutions
  CarrollMRT;                             !- Zone Radiant Exchange Algorithm

OS:WeatherFile,
  {f604e0cf-624d-4e8f-bfe6-403a7a642f1e}, !- Handle
  Buffalo Niagara Intl Ap,                !- City
  NY,                                     !- State Province Region
  USA,                                    !- Country
  TMY3,                                   !- Data Source
  725280,                                 !- WMO Number
  42.93,                                  !- Latitude {deg}
  -78.73,                                 !- Longitude {deg}
  -5,                                     !- Time Zone {hr}
  215,                                    !- Elevation {m}
  /Users/nmoore/github/urbanopt-example-geojson-project/example_project/weather/USA_NY_Buffalo-Greater.Buffalo.Intl.AP.725280_TMY3.epw, !- Url
  6B50E0FF,                               !- Checksum
  ,                                       !- Start Date Actual Year
  Sunday;                                 !- Start Day of Week

OS:YearDescription,
  {9ff3fe98-117d-4c40-af75-cc5292d6cab3}, !- Handle
  2007,                                   !- Calendar Year
  ,                                       !- Day of Week for Start Day
  ;                                       !- Is Leap Year

OS:Site,
  {b3ae7994-fdbc-47d9-ada0-9a3e7659a34b}, !- Handle
  Buffalo Niagara Intl Ap_NY,             !- Name
  42.93,                                  !- Latitude {deg}
  -78.73,                                 !- Longitude {deg}
  -5,                                     !- Time Zone {hr}
  215,                                    !- Elevation {m}
  Suburbs,                                !- Terrain
  Yes;                                    !- Keep Site Location Information

OS:RunPeriodControl:DaylightSavingTime,
  {b250d96a-8b99-4b3a-8abf-965ce8cc3267}, !- Handle
  Mar 12,                                 !- Start Date
  Nov 5;                                  !- End Date

OS:Site:GroundTemperature:Shallow,
  {89d80961-1c3e-445c-bd3b-1af5304a3ee9}, !- Handle
  4.30207395723828,                       !- January Surface Ground Temperature {C}
  2.29327249652502,                       !- February Surface Ground Temperature {C}
  2.13240047156047,                       !- March Surface Ground Temperature {C}
  3.08567940719286,                       !- April Surface Ground Temperature {C}
  6.91256312497526,                       !- May Surface Ground Temperature {C}
  10.7216195949507,                       !- June Surface Ground Temperature {C}
  14.0238679822574,                       !- July Surface Ground Temperature {C}
  16.1157611184724,                       !- August Surface Ground Temperature {C}
  16.2934789303462,                       !- September Surface Ground Temperature {C}
  14.5920754632847,                       !- October Surface Ground Temperature {C}
  11.374036348653,                        !- November Surface Ground Temperature {C}
  7.68182621661674;                       !- December Surface Ground Temperature {C}

OS:ThermalZone,
  {02d1fcea-7b28-48e2-bdda-1f7430c9c651}, !- Handle
  conditioned space,                      !- Name
  1,                                      !- Multiplier
  ,                                       !- Ceiling Height {m}
  692.06373070848,                        !- Volume {m3}
  ,                                       !- Floor Area {m2}
  ,                                       !- Zone Inside Convection Algorithm
  ,                                       !- Zone Outside Convection Algorithm
  ,                                       !- Zone Conditioning Equipment List Name
  {67990ceb-2280-46d8-8f92-8cc5704daf79}, !- Zone Air Inlet Port List
  {77ed8519-866c-4b71-90d8-76da55ed1848}, !- Zone Air Exhaust Port List
  {aa97a716-d9e7-4c49-920e-187dd711bdf6}, !- Zone Air Node Name
  {7d904cd3-85ac-48ad-b8a2-5e1954beddb4}, !- Zone Return Air Port List
  ,                                       !- Primary Daylighting Control Name
  ,                                       !- Fraction of Zone Controlled by Primary Daylighting Control
  ,                                       !- Secondary Daylighting Control Name
  ,                                       !- Fraction of Zone Controlled by Secondary Daylighting Control
  ,                                       !- Illuminance Map Name
  ,                                       !- Group Rendering Name
  {31038aef-6128-44b0-b472-e6f7656e7e27}, !- Thermostat Name
  No;                                     !- Use Ideal Air Loads

OS:Node,
  {5f58a924-6ba9-4107-88c9-0d9d77fa4952}, !- Handle
  Node 1,                                 !- Name
  {aa97a716-d9e7-4c49-920e-187dd711bdf6}, !- Inlet Port
  ;                                       !- Outlet Port

OS:Connection,
  {aa97a716-d9e7-4c49-920e-187dd711bdf6}, !- Handle
  {02d1fcea-7b28-48e2-bdda-1f7430c9c651}, !- Source Object
  11,                                     !- Outlet Port
  {5f58a924-6ba9-4107-88c9-0d9d77fa4952}, !- Target Object
  2;                                      !- Inlet Port

OS:PortList,
  {67990ceb-2280-46d8-8f92-8cc5704daf79}, !- Handle
  {02d1fcea-7b28-48e2-bdda-1f7430c9c651}, !- HVAC Component
  {7e2f58e4-fd25-4f67-a0d1-f8858b049b26}; !- Port 1

OS:PortList,
  {77ed8519-866c-4b71-90d8-76da55ed1848}, !- Handle
  {02d1fcea-7b28-48e2-bdda-1f7430c9c651}; !- HVAC Component

OS:PortList,
  {7d904cd3-85ac-48ad-b8a2-5e1954beddb4}, !- Handle
  {02d1fcea-7b28-48e2-bdda-1f7430c9c651}, !- HVAC Component
  {251b7678-8646-4191-807e-c9d77887a76d}; !- Port 1

OS:Sizing:Zone,
  {5ddc9b1d-39ba-48cd-88ba-1d4f4ae709cc}, !- Handle
  {02d1fcea-7b28-48e2-bdda-1f7430c9c651}, !- Zone or ZoneList Name
  SupplyAirTemperature,                   !- Zone Cooling Design Supply Air Temperature Input Method
  14,                                     !- Zone Cooling Design Supply Air Temperature {C}
  11.11,                                  !- Zone Cooling Design Supply Air Temperature Difference {deltaC}
  SupplyAirTemperature,                   !- Zone Heating Design Supply Air Temperature Input Method
  40,                                     !- Zone Heating Design Supply Air Temperature {C}
  11.11,                                  !- Zone Heating Design Supply Air Temperature Difference {deltaC}
  0.0085,                                 !- Zone Cooling Design Supply Air Humidity Ratio {kg-H2O/kg-air}
  0.008,                                  !- Zone Heating Design Supply Air Humidity Ratio {kg-H2O/kg-air}
  ,                                       !- Zone Heating Sizing Factor
  ,                                       !- Zone Cooling Sizing Factor
  DesignDay,                              !- Cooling Design Air Flow Method
  ,                                       !- Cooling Design Air Flow Rate {m3/s}
  ,                                       !- Cooling Minimum Air Flow per Zone Floor Area {m3/s-m2}
  ,                                       !- Cooling Minimum Air Flow {m3/s}
  ,                                       !- Cooling Minimum Air Flow Fraction
  DesignDay,                              !- Heating Design Air Flow Method
  ,                                       !- Heating Design Air Flow Rate {m3/s}
  ,                                       !- Heating Maximum Air Flow per Zone Floor Area {m3/s-m2}
  ,                                       !- Heating Maximum Air Flow {m3/s}
  ,                                       !- Heating Maximum Air Flow Fraction
  No,                                     !- Account for Dedicated Outdoor Air System
  NeutralSupplyAir,                       !- Dedicated Outdoor Air System Control Strategy
  autosize,                               !- Dedicated Outdoor Air Low Setpoint Temperature for Design {C}
  autosize,                               !- Dedicated Outdoor Air High Setpoint Temperature for Design {C}
  Sensible Load Only No Latent Load,      !- Zone Load Sizing Method
  HumidityRatioDifference,                !- Zone Latent Cooling Design Supply Air Humidity Ratio Input Method
  ,                                       !- Zone Dehumidification Design Supply Air Humidity Ratio {kgWater/kgDryAir}
  0.005,                                  !- Zone Cooling Design Supply Air Humidity Ratio Difference {kgWater/kgDryAir}
  HumidityRatioDifference,                !- Zone Latent Heating Design Supply Air Humidity Ratio Input Method
  ,                                       !- Zone Humidification Design Supply Air Humidity Ratio {kgWater/kgDryAir}
  0.005,                                  !- Zone Humidification Design Supply Air Humidity Ratio Difference {kgWater/kgDryAir}
  ,                                       !- Zone Humidistat Dehumidification Set Point Schedule Name
  ,                                       !- Zone Humidistat Humidification Set Point Schedule Name
  ,                                       !- Design Zone Air Distribution Effectiveness in Cooling Mode
  ,                                       !- Design Zone Air Distribution Effectiveness in Heating Mode
  ,                                       !- Design Zone Secondary Recirculation Fraction {dimensionless}
  ,                                       !- Design Minimum Zone Ventilation Efficiency {dimensionless}
  Coincident;                             !- Sizing Option

OS:ZoneHVAC:EquipmentList,
  {0d0d1c7d-adb7-4198-8abd-7025b6d2138c}, !- Handle
  Zone HVAC Equipment List 1,             !- Name
  {02d1fcea-7b28-48e2-bdda-1f7430c9c651}, !- Thermal Zone
  ,                                       !- Load Distribution Scheme
  {49f7e24c-0352-4a2a-a105-ff2e33484ad4}, !- Zone Equipment 1
  1,                                      !- Zone Equipment Cooling Sequence 1
  1,                                      !- Zone Equipment Heating or No-Load Sequence 1
  {93ca440d-5eea-4a76-889d-216bc6cf1ddc}, !- Zone Equipment Sequential Cooling Fraction Schedule Name 1
  {eb2827a8-c1ee-42f7-851b-fa92a1fcc966}; !- Zone Equipment Sequential Heating Fraction Schedule Name 1

OS:AdditionalProperties,
  {cc4ba571-81cc-4409-a813-45c711bea2f5}, !- Handle
  {02d1fcea-7b28-48e2-bdda-1f7430c9c651}, !- Object Name
  ObjectType,                             !- Feature Name 1
  String,                                 !- Feature Data Type 1
  conditioned space;                      !- Feature Value 1

OS:Space,
  {693aef9b-a57a-48c3-b546-71bff905135e}, !- Handle
  conditioned space 1,                    !- Name
  ,                                       !- Space Type Name
  ,                                       !- Default Construction Set Name
  ,                                       !- Default Schedule Set Name
  ,                                       !- Direction of Relative North {deg}
  ,                                       !- X Origin {m}
  ,                                       !- Y Origin {m}
  ,                                       !- Z Origin {m}
  ,                                       !- Building Story Name
  {02d1fcea-7b28-48e2-bdda-1f7430c9c651}, !- Thermal Zone Name
  ,                                       !- Part of Total Floor Area
  ,                                       !- Design Specification Outdoor Air Object Name
  ,                                       !- Building Unit Name
  692.06373070848;                        !- Volume {m3}

OS:Schedule:Ruleset,
  {839f6196-200a-4857-b445-610b6043cc42}, !- Handle
  heating setpoint,                       !- Name
  {a1121206-0b21-4724-99d7-3813c939e2a0}, !- Schedule Type Limits Name
  {7068d596-623a-4086-a23f-d596dc6d2795}; !- Default Day Schedule Name

OS:Schedule:Day,
  {7068d596-623a-4086-a23f-d596dc6d2795}, !- Handle
  heating setpoint default day,           !- Name
  {a1121206-0b21-4724-99d7-3813c939e2a0}, !- Schedule Type Limits Name
  ,                                       !- Interpolate to Timestep
  24,                                     !- Hour 1
  0,                                      !- Minute 1
  0;                                      !- Value Until Time 1

OS:Schedule:Rule,
  {e941d481-6e14-47fb-8317-97466e0a8d81}, !- Handle
  heating setpoint allday rule,           !- Name
  {839f6196-200a-4857-b445-610b6043cc42}, !- Schedule Ruleset Name
  0,                                      !- Rule Order
  {a8e792cd-fc8a-4536-95e6-db6a2674e354}, !- Day Schedule Name
  Yes,                                    !- Apply Sunday
  Yes,                                    !- Apply Monday
  Yes,                                    !- Apply Tuesday
  Yes,                                    !- Apply Wednesday
  Yes,                                    !- Apply Thursday
  Yes,                                    !- Apply Friday
  Yes,                                    !- Apply Saturday
  DateRange,                              !- Date Specification Type
  1,                                      !- Start Month
  1,                                      !- Start Day
  12,                                     !- End Month
  31;                                     !- End Day

OS:Schedule:Day,
  {a8e792cd-fc8a-4536-95e6-db6a2674e354}, !- Handle
  heating setpoint day,                   !- Name
  {a1121206-0b21-4724-99d7-3813c939e2a0}, !- Schedule Type Limits Name
  ,                                       !- Interpolate to Timestep
  24,                                     !- Hour 1
  0,                                      !- Minute 1
  20;                                     !- Value Until Time 1

OS:Schedule:Ruleset,
  {0fd58693-03b9-416f-9729-6a25c443a40e}, !- Handle
  cooling setpoint,                       !- Name
  {a1121206-0b21-4724-99d7-3813c939e2a0}, !- Schedule Type Limits Name
  {f6f1dd33-95d3-44c6-bb46-66832cf1a597}; !- Default Day Schedule Name

OS:Schedule:Day,
  {f6f1dd33-95d3-44c6-bb46-66832cf1a597}, !- Handle
  cooling setpoint default day,           !- Name
  {a1121206-0b21-4724-99d7-3813c939e2a0}, !- Schedule Type Limits Name
  ,                                       !- Interpolate to Timestep
  24,                                     !- Hour 1
  0,                                      !- Minute 1
  0;                                      !- Value Until Time 1

OS:Schedule:Rule,
  {b067eb06-433e-4a19-97de-74f5b5e3f6ed}, !- Handle
  cooling setpoint allday rule,           !- Name
  {0fd58693-03b9-416f-9729-6a25c443a40e}, !- Schedule Ruleset Name
  0,                                      !- Rule Order
  {6bd1f592-25c6-458d-8f4b-44745a8e05a9}, !- Day Schedule Name
  Yes,                                    !- Apply Sunday
  Yes,                                    !- Apply Monday
  Yes,                                    !- Apply Tuesday
  Yes,                                    !- Apply Wednesday
  Yes,                                    !- Apply Thursday
  Yes,                                    !- Apply Friday
  Yes,                                    !- Apply Saturday
  DateRange,                              !- Date Specification Type
  1,                                      !- Start Month
  1,                                      !- Start Day
  12,                                     !- End Month
  31;                                     !- End Day

OS:Schedule:Day,
  {6bd1f592-25c6-458d-8f4b-44745a8e05a9}, !- Handle
  cooling setpoint day,                   !- Name
  {a1121206-0b21-4724-99d7-3813c939e2a0}, !- Schedule Type Limits Name
  ,                                       !- Interpolate to Timestep
  24,                                     !- Hour 1
  0,                                      !- Minute 1
  25.5555555555556;                       !- Value Until Time 1

OS:ThermostatSetpoint:DualSetpoint,
  {31038aef-6128-44b0-b472-e6f7656e7e27}, !- Handle
  conditioned space temperature setpoint, !- Name
  {839f6196-200a-4857-b445-610b6043cc42}, !- Heating Setpoint Temperature Schedule Name
  {0fd58693-03b9-416f-9729-6a25c443a40e}, !- Cooling Setpoint Temperature Schedule Name
  0;                                      !- Temperature Difference Between Cutout And Setpoint {deltaC}

OS:ScheduleTypeLimits,
  {a1121206-0b21-4724-99d7-3813c939e2a0}, !- Handle
  Temperature,                            !- Name
  ,                                       !- Lower Limit Value
  ,                                       !- Upper Limit Value
  Continuous,                             !- Numeric Type
  Temperature;                            !- Unit Type

OS:Surface,
  {df2625ee-747c-4d78-9101-e30418a4c841}, !- Handle
  Roof1,                                  !- Name
  RoofCeiling,                            !- Surface Type
  {936e8ef3-3cc5-42b4-9f28-42ead7e6621f}, !- Construction Name
  {9c86a96e-a197-4c90-a479-3ccac1d728fd}, !- Space Name
  Outdoors,                               !- Outside Boundary Condition
  ,                                       !- Outside Boundary Condition Object
  SunExposed,                             !- Sun Exposure
  WindExposed,                            !- Wind Exposure
  ,                                       !- View Factor to Ground
  ,                                       !- Number of Vertices
  -26.9347048849634, 58.0557891618865, 2.4384, !- X,Y,Z Vertex 1 {m}
  -26.9347048849634, 46.7895631136661, 8.0715130241102, !- X,Y,Z Vertex 2 {m}
  -14.3386812381136, 46.7895631136661, 8.0715130241102, !- X,Y,Z Vertex 3 {m}
  -14.3386812381136, 58.0557891618865, 2.4384; !- X,Y,Z Vertex 4 {m}

OS:AdditionalProperties,
  {15b11179-6415-4f78-b628-5a99c9eeb884}, !- Handle
  {df2625ee-747c-4d78-9101-e30418a4c841}, !- Object Name
  Length,                                 !- Feature Name 1
  Double,                                 !- Feature Data Type 1
  41.325536899113608,                     !- Feature Value 1
  Width,                                  !- Feature Name 2
  Double,                                 !- Feature Data Type 2
  41.325536899113601,                     !- Feature Value 2
  Azimuth,                                !- Feature Name 3
  Integer,                                !- Feature Data Type 3
  0,                                      !- Feature Value 3
  Tilt,                                   !- Feature Name 4
  Double,                                 !- Feature Data Type 4
  0.5,                                    !- Feature Value 4
  SurfaceType,                            !- Feature Name 5
  String,                                 !- Feature Data Type 5
  Roof;                                   !- Feature Value 5

OS:ThermalZone,
  {ae89e40e-1a97-4b44-b5ae-f1e711938c94}, !- Handle
  attic - vented,                         !- Name
  1,                                      !- Multiplier
  ,                                       !- Ceiling Height {m}
  356.389957095237,                       !- Volume {m3}
  ,                                       !- Floor Area {m2}
  ,                                       !- Zone Inside Convection Algorithm
  ,                                       !- Zone Outside Convection Algorithm
  ,                                       !- Zone Conditioning Equipment List Name
  {bb10866d-8954-42a3-89b5-d17574cb817b}, !- Zone Air Inlet Port List
  {95b226a6-518e-441a-9b38-c92784804446}, !- Zone Air Exhaust Port List
  {25ed3151-7570-42d9-9909-851c82532de2}, !- Zone Air Node Name
  {adc5bb23-d8b6-432e-8785-810d04b01aff}, !- Zone Return Air Port List
  ,                                       !- Primary Daylighting Control Name
  ,                                       !- Fraction of Zone Controlled by Primary Daylighting Control
  ,                                       !- Secondary Daylighting Control Name
  ,                                       !- Fraction of Zone Controlled by Secondary Daylighting Control
  ,                                       !- Illuminance Map Name
  ,                                       !- Group Rendering Name
  ,                                       !- Thermostat Name
  No;                                     !- Use Ideal Air Loads

OS:Node,
  {14a876db-d97d-4b26-9a6a-8d1491812eef}, !- Handle
  Node 2,                                 !- Name
  {25ed3151-7570-42d9-9909-851c82532de2}, !- Inlet Port
  ;                                       !- Outlet Port

OS:Connection,
  {25ed3151-7570-42d9-9909-851c82532de2}, !- Handle
  {ae89e40e-1a97-4b44-b5ae-f1e711938c94}, !- Source Object
  11,                                     !- Outlet Port
  {14a876db-d97d-4b26-9a6a-8d1491812eef}, !- Target Object
  2;                                      !- Inlet Port

OS:PortList,
  {bb10866d-8954-42a3-89b5-d17574cb817b}, !- Handle
  {ae89e40e-1a97-4b44-b5ae-f1e711938c94}; !- HVAC Component

OS:PortList,
  {95b226a6-518e-441a-9b38-c92784804446}, !- Handle
  {ae89e40e-1a97-4b44-b5ae-f1e711938c94}; !- HVAC Component

OS:PortList,
  {adc5bb23-d8b6-432e-8785-810d04b01aff}, !- Handle
  {ae89e40e-1a97-4b44-b5ae-f1e711938c94}; !- HVAC Component

OS:Sizing:Zone,
  {c08e0e13-9b25-40b0-9b8e-ed946f5cbc78}, !- Handle
  {ae89e40e-1a97-4b44-b5ae-f1e711938c94}, !- Zone or ZoneList Name
  SupplyAirTemperature,                   !- Zone Cooling Design Supply Air Temperature Input Method
  14,                                     !- Zone Cooling Design Supply Air Temperature {C}
  11.11,                                  !- Zone Cooling Design Supply Air Temperature Difference {deltaC}
  SupplyAirTemperature,                   !- Zone Heating Design Supply Air Temperature Input Method
  40,                                     !- Zone Heating Design Supply Air Temperature {C}
  11.11,                                  !- Zone Heating Design Supply Air Temperature Difference {deltaC}
  0.0085,                                 !- Zone Cooling Design Supply Air Humidity Ratio {kg-H2O/kg-air}
  0.008,                                  !- Zone Heating Design Supply Air Humidity Ratio {kg-H2O/kg-air}
  ,                                       !- Zone Heating Sizing Factor
  ,                                       !- Zone Cooling Sizing Factor
  DesignDay,                              !- Cooling Design Air Flow Method
  ,                                       !- Cooling Design Air Flow Rate {m3/s}
  ,                                       !- Cooling Minimum Air Flow per Zone Floor Area {m3/s-m2}
  ,                                       !- Cooling Minimum Air Flow {m3/s}
  ,                                       !- Cooling Minimum Air Flow Fraction
  DesignDay,                              !- Heating Design Air Flow Method
  ,                                       !- Heating Design Air Flow Rate {m3/s}
  ,                                       !- Heating Maximum Air Flow per Zone Floor Area {m3/s-m2}
  ,                                       !- Heating Maximum Air Flow {m3/s}
  ,                                       !- Heating Maximum Air Flow Fraction
  No,                                     !- Account for Dedicated Outdoor Air System
  NeutralSupplyAir,                       !- Dedicated Outdoor Air System Control Strategy
  autosize,                               !- Dedicated Outdoor Air Low Setpoint Temperature for Design {C}
  autosize,                               !- Dedicated Outdoor Air High Setpoint Temperature for Design {C}
  Sensible Load Only No Latent Load,      !- Zone Load Sizing Method
  HumidityRatioDifference,                !- Zone Latent Cooling Design Supply Air Humidity Ratio Input Method
  ,                                       !- Zone Dehumidification Design Supply Air Humidity Ratio {kgWater/kgDryAir}
  0.005,                                  !- Zone Cooling Design Supply Air Humidity Ratio Difference {kgWater/kgDryAir}
  HumidityRatioDifference,                !- Zone Latent Heating Design Supply Air Humidity Ratio Input Method
  ,                                       !- Zone Humidification Design Supply Air Humidity Ratio {kgWater/kgDryAir}
  0.005,                                  !- Zone Humidification Design Supply Air Humidity Ratio Difference {kgWater/kgDryAir}
  ,                                       !- Zone Humidistat Dehumidification Set Point Schedule Name
  ,                                       !- Zone Humidistat Humidification Set Point Schedule Name
  ,                                       !- Design Zone Air Distribution Effectiveness in Cooling Mode
  ,                                       !- Design Zone Air Distribution Effectiveness in Heating Mode
  ,                                       !- Design Zone Secondary Recirculation Fraction {dimensionless}
  ,                                       !- Design Minimum Zone Ventilation Efficiency {dimensionless}
  Coincident;                             !- Sizing Option

OS:ZoneHVAC:EquipmentList,
  {a9aeb2a4-db37-4cc0-ab70-e5aa7274b9a1}, !- Handle
  Zone HVAC Equipment List 2,             !- Name
  {ae89e40e-1a97-4b44-b5ae-f1e711938c94}; !- Thermal Zone

OS:AdditionalProperties,
  {bad3c88b-8581-447d-a979-fb6c67a5ff6f}, !- Handle
  {ae89e40e-1a97-4b44-b5ae-f1e711938c94}, !- Object Name
  ObjectType,                             !- Feature Name 1
  String,                                 !- Feature Data Type 1
  attic - vented;                         !- Feature Value 1

OS:Space,
  {9c86a96e-a197-4c90-a479-3ccac1d728fd}, !- Handle
  attic - vented 1,                       !- Name
  ,                                       !- Space Type Name
  ,                                       !- Default Construction Set Name
  ,                                       !- Default Schedule Set Name
  ,                                       !- Direction of Relative North {deg}
  ,                                       !- X Origin {m}
  ,                                       !- Y Origin {m}
  ,                                       !- Z Origin {m}
  ,                                       !- Building Story Name
  {ae89e40e-1a97-4b44-b5ae-f1e711938c94}, !- Thermal Zone Name
  ,                                       !- Part of Total Floor Area
  ,                                       !- Design Specification Outdoor Air Object Name
  ,                                       !- Building Unit Name
  356.389957095237;                       !- Volume {m3}

OS:Material,
  {eab888f0-d074-451e-9df2-2b0e14a94485}, !- Handle
  asphalt or fiberglass shingles,         !- Name
  Rough,                                  !- Roughness
  0.00635,                                !- Thickness {m}
  0.162714,                               !- Conductivity {W/m-K}
  1121.4,                                 !- Density {kg/m3}
  1465.45,                                !- Specific Heat {J/kg-K}
  0.9,                                    !- Thermal Absorptance
  0.85,                                   !- Solar Absorptance