
OS:Version,
  {481d3b52-f66c-4254-bbd2-9e6b86c9b230}, !- Handle
  3.10.0;                                 !- Version Identifier

OS:SimulationControl,
  {fefac152-67a2-4632-b393-d9d6d1b4e545}, !- Handle
  ,                                       !- Do Zone Sizing Calculation
  ,                                       !- Do System Sizing Calculation
  ,                                       !- Do Plant Sizing Calculation
  No;                                     !- Run Simulation for Sizing Periods

OS:Timestep,
  {d3e309a9-013a-45e5-bab8-175e36ae8108}, !- Handle
  1;                                      !- Number of Timesteps per Hour

OS:ShadowCalculation,
  {ab66bb81-9aff-422a-9dcc-5b4b51a29d9d}, !- Handle
  PolygonClipping,                        !- Shading Calculation Method
  ,                                       !- Shading Calculation Update Frequency Method
  20,                                     !- Shading Calculation Update Frequency
  200,                                    !- Maximum Figures in Shadow Overlap Calculations
  ,                                       !- Polygon Clipping Algorithm
  512,                                    !- Pixel Counting Resolution
  ,                                       !- Sky Diffuse Modeling Algorithm
  No,                                     !- Output External Shading Calculation Results
  No,                                     !- Disable Self-Shading Within Shading Zone Groups
  No;                                     !- Disable Self-Shading From Shading Zone Groups to Other Zones

OS:SurfaceConvectionAlgorithm:Outside,
  {4e1754e7-7d3a-4286-b4cd-f88d51260b95}, !- Handle
  DOE-2;                                  !- Algorithm

OS:SurfaceConvectionAlgorithm:Inside,
  {66037d90-1131-41b5-b6a9-778db029cc38}, !- Handle
  TARP;                                   !- Algorithm

OS:ZoneCapacitanceMultiplier:ResearchSpecial,
  {afd64c1e-3f34-4f7c-beb9-1fabb4b78fa3}, !- Handle
  7,                                      !- Temperature Capacity Multiplier
  15,                                     !- Humidity Capacity Multiplier
  ;                                       !- Carbon Dioxide Capacity Multiplier

OS:ConvergenceLimits,
  {0e37d23c-e2ac-460c-98aa-3e3b91c0e8a1}, !- Handle
  0;                                      !- Minimum System Timestep {minutes}

OS:RunPeriod,
  {269878be-ad0b-46b2-9b15-8586e996c466}, !- Handle
  Run Period 1,                           !- Name
  1,                                      !- Begin Month
  1,                                      !- Begin Day of Month
  12,                                     !- End Month
  31,                                     !- End Day of Month
  ,                                       !- Use Weather File Holidays and Special Days
  ,                                       !- Use Weather File Daylight Saving Period
  ,                                       !- Apply Weekend Holiday Rule
  ,                                       !- Use Weather File Rain Indicators
  ,                                       !- Use Weather File Snow Indicators
  ;                                       !- Number of Times Runperiod to be Repeated

OS:PerformancePrecisionTradeoffs,
  {3857828a-28be-475a-8d31-97b29f0716ce}, !- Handle
  ,                                       !- Use Coil Direct Solutions
  CarrollMRT;                             !- Zone Radiant Exchange Algorithm

OS:WeatherFile,
  {f6c5c3c8-7df2-487b-8ca8-14a79a221805}, !- Handle
  Buffalo Niagara Intl Ap,                !- City
  NY,                                     !- State Province Region
  USA,                                    !- Country
  TMY3,                                   !- Data Source
  725280,                                 !- WMO Number
  42.93,                                  !- Latitude {deg}
  -78.73,                                 !- Longitude {deg}
  -5,                                     !- Time Zone {hr}
  215,                                    !- Elevation {m}
  /Users/nmoore/github/urbanopt-example-geojson-project/example_project/weather/USA_NY_Buffalo-Greater.Buffalo.Intl.AP.725280_TMY3.epw, !- Url
  6B50E0FF,                               !- Checksum
  ,                                       !- Start Date Actual Year
  Sunday;                                 !- Start Day of Week

OS:YearDescription,
  {ac197b86-a3c4-4315-9cf3-2ffc22314930}, !- Handle
  2007,                                   !- Calendar Year
  ,                                       !- Day of Week for Start Day
  ;                                       !- Is Leap Year

OS:Site,
  {55e9f7c1-56ac-4add-8cd7-832a8d0a7d67}, !- Handle
  Buffalo Niagara Intl Ap_NY,             !- Name
  42.93,                                  !- Latitude {deg}
  -78.73,                                 !- Longitude {deg}
  -5,                                     !- Time Zone {hr}
  215,                                    !- Elevation {m}
  Suburbs,                                !- Terrain
  Yes;                                    !- Keep Site Location Information

OS:RunPeriodControl:DaylightSavingTime,
  {248299cf-c44f-4429-b448-b2fccc9431ec}, !- Handle
  Mar 12,                                 !- Start Date
  Nov 5;                                  !- End Date

OS:Site:GroundTemperature:Shallow,
  {65b1b80f-28b8-46a7-9bd2-7eec8eb811c5}, !- Handle
  4.30207395723828,                       !- January Surface Ground Temperature {C}
  2.29327249652502,                       !- February Surface Ground Temperature {C}
  2.13240047156047,                       !- March Surface Ground Temperature {C}
  3.08567940719286,                       !- April Surface Ground Temperature {C}
  6.91256312497526,                       !- May Surface Ground Temperature {C}
  10.7216195949507,                       !- June Surface Ground Temperature {C}
  14.0238679822574,                       !- July Surface Ground Temperature {C}
  16.1157611184724,                       !- August Surface Ground Temperature {C}
  16.2934789303462,                       !- September Surface Ground Temperature {C}
  14.5920754632847,                       !- October Surface Ground Temperature {C}
  11.374036348653,                        !- November Surface Ground Temperature {C}
  7.68182621661674;                       !- December Surface Ground Temperature {C}

OS:ThermalZone,
  {96946e8e-23b2-463c-b70f-ae51f5bd255f}, !- Handle
  conditioned space,                      !- Name
  1,                                      !- Multiplier
  ,                                       !- Ceiling Height {m}
  692.06373070848,                        !- Volume {m3}
  ,                                       !- Floor Area {m2}
  ,                                       !- Zone Inside Convection Algorithm
  ,                                       !- Zone Outside Convection Algorithm
  ,                                       !- Zone Conditioning Equipment List Name
  {aab8331f-ce41-420d-8b49-b35692cb6fb4}, !- Zone Air Inlet Port List
  {a694eb33-a5e7-421c-afb0-69527c298000}, !- Zone Air Exhaust Port List
  {17fe0195-3ad8-4f3b-88ed-0802f5124aa3}, !- Zone Air Node Name
  {1b2be19f-3f9a-41a4-a134-856ee9da1220}, !- Zone Return Air Port List
  ,                                       !- Primary Daylighting Control Name
  ,                                       !- Fraction of Zone Controlled by Primary Daylighting Control
  ,                                       !- Secondary Daylighting Control Name
  ,                                       !- Fraction of Zone Controlled by Secondary Daylighting Control
  ,                                       !- Illuminance Map Name
  ,                                       !- Group Rendering Name
  {6882eb52-9940-4822-a161-75aa3fc59847}, !- Thermostat Name
  No;                                     !- Use Ideal Air Loads

OS:Node,
  {778511e2-683f-4752-8012-b6f4695c5927}, !- Handle
  Node 1,                                 !- Name
  {17fe0195-3ad8-4f3b-88ed-0802f5124aa3}, !- Inlet Port
  ;                                       !- Outlet Port

OS:Connection,
  {17fe0195-3ad8-4f3b-88ed-0802f5124aa3}, !- Handle
  {96946e8e-23b2-463c-b70f-ae51f5bd255f}, !- Source Object
  11,                                     !- Outlet Port
  {778511e2-683f-4752-8012-b6f4695c5927}, !- Target Object
  2;                                      !- Inlet Port

OS:PortList,
  {aab8331f-ce41-420d-8b49-b35692cb6fb4}, !- Handle
  {96946e8e-23b2-463c-b70f-ae51f5bd255f}, !- HVAC Component
  {7570f288-cd1f-4a59-85e8-359628f84fe6}; !- Port 1

OS:PortList,
  {a694eb33-a5e7-421c-afb0-69527c298000}, !- Handle
  {96946e8e-23b2-463c-b70f-ae51f5bd255f}; !- HVAC Component

OS:PortList,
  {1b2be19f-3f9a-41a4-a134-856ee9da1220}, !- Handle
  {96946e8e-23b2-463c-b70f-ae51f5bd255f}, !- HVAC Component
  {53c5c411-ef12-419c-90fc-e45ac2b43931}; !- Port 1

OS:Sizing:Zone,
  {41793a6e-33a8-4263-926d-00386b30fbaa}, !- Handle
  {96946e8e-23b2-463c-b70f-ae51f5bd255f}, !- Zone or ZoneList Name
  SupplyAirTemperature,                   !- Zone Cooling Design Supply Air Temperature Input Method
  14,                                     !- Zone Cooling Design Supply Air Temperature {C}
  11.11,                                  !- Zone Cooling Design Supply Air Temperature Difference {deltaC}
  SupplyAirTemperature,                   !- Zone Heating Design Supply Air Temperature Input Method
  40,                                     !- Zone Heating Design Supply Air Temperature {C}
  11.11,                                  !- Zone Heating Design Supply Air Temperature Difference {deltaC}
  0.0085,                                 !- Zone Cooling Design Supply Air Humidity Ratio {kg-H2O/kg-air}
  0.008,                                  !- Zone Heating Design Supply Air Humidity Ratio {kg-H2O/kg-air}
  ,                                       !- Zone Heating Sizing Factor
  ,                                       !- Zone Cooling Sizing Factor
  DesignDay,                              !- Cooling Design Air Flow Method
  ,                                       !- Cooling Design Air Flow Rate {m3/s}
  ,                                       !- Cooling Minimum Air Flow per Zone Floor Area {m3/s-m2}
  ,                                       !- Cooling Minimum Air Flow {m3/s}
  ,                                       !- Cooling Minimum Air Flow Fraction
  DesignDay,                              !- Heating Design Air Flow Method
  ,                                       !- Heating Design Air Flow Rate {m3/s}
  ,                                       !- Heating Maximum Air Flow per Zone Floor Area {m3/s-m2}
  ,                                       !- Heating Maximum Air Flow {m3/s}
  ,                                       !- Heating Maximum Air Flow Fraction
  No,                                     !- Account for Dedicated Outdoor Air System
  NeutralSupplyAir,                       !- Dedicated Outdoor Air System Control Strategy
  autosize,                               !- Dedicated Outdoor Air Low Setpoint Temperature for Design {C}
  autosize,                               !- Dedicated Outdoor Air High Setpoint Temperature for Design {C}
  Sensible Load Only No Latent Load,      !- Zone Load Sizing Method
  HumidityRatioDifference,                !- Zone Latent Cooling Design Supply Air Humidity Ratio Input Method
  ,                                       !- Zone Dehumidification Design Supply Air Humidity Ratio {kgWater/kgDryAir}
  0.005,                                  !- Zone Cooling Design Supply Air Humidity Ratio Difference {kgWater/kgDryAir}
  HumidityRatioDifference,                !- Zone Latent Heating Design Supply Air Humidity Ratio Input Method
  ,                                       !- Zone Humidification Design Supply Air Humidity Ratio {kgWater/kgDryAir}
  0.005,                                  !- Zone Humidification Design Supply Air Humidity Ratio Difference {kgWater/kgDryAir}
  ,                                       !- Zone Humidistat Dehumidification Set Point Schedule Name
  ,                                       !- Zone Humidistat Humidification Set Point Schedule Name
  ,                                       !- Design Zone Air Distribution Effectiveness in Cooling Mode
  ,                                       !- Design Zone Air Distribution Effectiveness in Heating Mode
  ,                                       !- Design Zone Secondary Recirculation Fraction {dimensionless}
  ,                                       !- Design Minimum Zone Ventilation Efficiency {dimensionless}
  Coincident;                             !- Sizing Option

OS:ZoneHVAC:EquipmentList,
  {3c823eb3-572f-4c5d-9919-af9f79caadae}, !- Handle
  Zone HVAC Equipment List 1,             !- Name
  {96946e8e-23b2-463c-b70f-ae51f5bd255f}, !- Thermal Zone
  ,                                       !- Load Distribution Scheme
  {90a32d7a-3a2b-4116-b362-c29e7d42c304}, !- Zone Equipment 1
  1,                                      !- Zone Equipment Cooling Sequence 1
  1,                                      !- Zone Equipment Heating or No-Load Sequence 1
  {48504ee7-bde9-4542-9bb8-86962f441012}, !- Zone Equipment Sequential Cooling Fraction Schedule Name 1
  {731df3b8-2925-41cd-988b-0b4db65bca55}; !- Zone Equipment Sequential Heating Fraction Schedule Name 1

OS:AdditionalProperties,
  {dee78d51-c5c6-4e92-b128-ae1b960bf8be}, !- Handle
  {96946e8e-23b2-463c-b70f-ae51f5bd255f}, !- Object Name
  ObjectType,                             !- Feature Name 1
  String,                                 !- Feature Data Type 1
  conditioned space;                      !- Feature Value 1

OS:Space,
  {71c8b461-104c-47e2-8ebf-dcb22433db43}, !- Handle
  conditioned space 1,                    !- Name
  ,                                       !- Space Type Name
  ,                                       !- Default Construction Set Name
  ,                                       !- Default Schedule Set Name
  ,                                       !- Direction of Relative North {deg}
  ,                                       !- X Origin {m}
  ,                                       !- Y Origin {m}
  ,                                       !- Z Origin {m}
  ,                                       !- Building Story Name
  {96946e8e-23b2-463c-b70f-ae51f5bd255f}, !- Thermal Zone Name
  ,                                       !- Part of Total Floor Area
  ,                                       !- Design Specification Outdoor Air Object Name
  ,                                       !- Building Unit Name
  692.06373070848;                        !- Volume {m3}

OS:Schedule:Ruleset,
  {3242aaa8-9bf1-40ec-bbe7-13b58dc1d2b0}, !- Handle
  heating setpoint,                       !- Name
  {67bcba77-7d65-43a0-89fd-993ec952bcac}, !- Schedule Type Limits Name
  {70c12ab2-9e37-4b6e-8ff2-723e4be53d4f}; !- Default Day Schedule Name

OS:Schedule:Day,
  {70c12ab2-9e37-4b6e-8ff2-723e4be53d4f}, !- Handle
  heating setpoint default day,           !- Name
  {67bcba77-7d65-43a0-89fd-993ec952bcac}, !- Schedule Type Limits Name
  ,                                       !- Interpolate to Timestep
  24,                                     !- Hour 1
  0,                                      !- Minute 1
  0;                                      !- Value Until Time 1

OS:Schedule:Rule,
  {780a42a1-d98d-475b-8210-33541c4baf82}, !- Handle
  heating setpoint allday rule,           !- Name
  {3242aaa8-9bf1-40ec-bbe7-13b58dc1d2b0}, !- Schedule Ruleset Name
  0,                                      !- Rule Order
  {89f74e84-84b3-4e95-8f6e-77b432388991}, !- Day Schedule Name
  Yes,                                    !- Apply Sunday
  Yes,                                    !- Apply Monday
  Yes,                                    !- Apply Tuesday
  Yes,                                    !- Apply Wednesday
  Yes,                                    !- Apply Thursday
  Yes,                                    !- Apply Friday
  Yes,                                    !- Apply Saturday
  DateRange,                              !- Date Specification Type
  1,                                      !- Start Month
  1,                                      !- Start Day
  12,                                     !- End Month
  31;                                     !- End Day

OS:Schedule:Day,
  {89f74e84-84b3-4e95-8f6e-77b432388991}, !- Handle
  heating setpoint day,                   !- Name
  {67bcba77-7d65-43a0-89fd-993ec952bcac}, !- Schedule Type Limits Name
  ,                                       !- Interpolate to Timestep
  24,                                     !- Hour 1
  0,                                      !- Minute 1
  20;                                     !- Value Until Time 1

OS:Schedule:Ruleset,
  {852609f3-d0e2-479a-b36b-38d91119078d}, !- Handle
  cooling setpoint,                       !- Name
  {67bcba77-7d65-43a0-89fd-993ec952bcac}, !- Schedule Type Limits Name
  {d8573788-8439-4399-baef-f31adee5c0cf}; !- Default Day Schedule Name

OS:Schedule:Day,
  {d8573788-8439-4399-baef-f31adee5c0cf}, !- Handle
  cooling setpoint default day,           !- Name
  {67bcba77-7d65-43a0-89fd-993ec952bcac}, !- Schedule Type Limits Name
  ,                                       !- Interpolate to Timestep
  24,                                     !- Hour 1
  0,                                      !- Minute 1
  0;                                      !- Value Until Time 1

OS:Schedule:Rule,
  {75aacaa5-e7d1-4247-ab6d-b3d5c8a52fe9}, !- Handle
  cooling setpoint allday rule,           !- Name
  {852609f3-d0e2-479a-b36b-38d91119078d}, !- Schedule Ruleset Name
  0,                                      !- Rule Order
  {a8c1ad7c-f75e-4dae-bf08-e421b07f24c3}, !- Day Schedule Name
  Yes,                                    !- Apply Sunday
  Yes,                                    !- Apply Monday
  Yes,                                    !- Apply Tuesday
  Yes,                                    !- Apply Wednesday
  Yes,                                    !- Apply Thursday
  Yes,                                    !- Apply Friday
  Yes,                                    !- Apply Saturday
  DateRange,                              !- Date Specification Type
  1,                                      !- Start Month
  1,                                      !- Start Day
  12,                                     !- End Month
  31;                                     !- End Day

OS:Schedule:Day,
  {a8c1ad7c-f75e-4dae-bf08-e421b07f24c3}, !- Handle
  cooling setpoint day,                   !- Name
  {67bcba77-7d65-43a0-89fd-993ec952bcac}, !- Schedule Type Limits Name
  ,                                       !- Interpolate to Timestep
  24,                                     !- Hour 1
  0,                                      !- Minute 1
  25.5555555555556;                       !- Value Until Time 1

OS:ThermostatSetpoint:DualSetpoint,
  {6882eb52-9940-4822-a161-75aa3fc59847}, !- Handle
  conditioned space temperature setpoint, !- Name
  {3242aaa8-9bf1-40ec-bbe7-13b58dc1d2b0}, !- Heating Setpoint Temperature Schedule Name
  {852609f3-d0e2-479a-b36b-38d91119078d}, !- Cooling Setpoint Temperature Schedule Name
  0;                                      !- Temperature Difference Between Cutout And Setpoint {deltaC}

OS:ScheduleTypeLimits,
  {67bcba77-7d65-43a0-89fd-993ec952bcac}, !- Handle
  Temperature,                            !- Name
  ,                                       !- Lower Limit Value
  ,                                       !- Upper Limit Value
  Continuous,                             !- Numeric Type
  Temperature;                            !- Unit Type

OS:Surface,
  {4b03f39b-1f50-4e24-9760-3e38e36be8d9}, !- Handle
  Roof1,                                  !- Name
  RoofCeiling,                            !- Surface Type
  {96d9af83-904e-4650-a89d-93975306b415}, !- Construction Name
  {612dee47-86fb-426b-b287-82186e2ba848}, !- Space Name
  Outdoors,                               !- Outside Boundary Condition
  ,                                       !- Outside Boundary Condition Object
  SunExposed,                             !- Sun Exposure
  WindExposed,                            !- Wind Exposure
  ,                                       !- View Factor to Ground
  ,                                       !- Number of Vertices
  -26.9347048849634, 58.0557891618865, 2.4384, !- X,Y,Z Vertex 1 {m}
  -26.9347048849634, 46.7895631136661, 8.0715130241102, !- X,Y,Z Vertex 2 {m}
  -14.3386812381136, 46.7895631136661, 8.0715130241102, !- X,Y,Z Vertex 3 {m}
  -14.3386812381136, 58.0557891618865, 2.4384; !- X,Y,Z Vertex 4 {m}

OS:AdditionalProperties,
  {d275820f-ea54-4066-b45b-5bc4a16d77ea}, !- Handle
  {4b03f39b-1f50-4e24-9760-3e38e36be8d9}, !- Object Name
  Length,                                 !- Feature Name 1
  Double,                                 !- Feature Data Type 1
  41.325536899113608,                     !- Feature Value 1
  Width,                                  !- Feature Name 2
  Double,                                 !- Feature Data Type 2
  41.325536899113601,                     !- Feature Value 2
  Azimuth,                                !- Feature Name 3
  Integer,                                !- Feature Data Type 3
  0,                                      !- Feature Value 3
  Tilt,                                   !- Feature Name 4
  Double,                                 !- Feature Data Type 4
  0.5,                                    !- Feature Value 4
  SurfaceType,                            !- Feature Name 5
  String,                                 !- Feature Data Type 5
  Roof;                                   !- Feature Value 5

OS:ThermalZone,
  {38bb4a78-756a-49d3-bec2-0eca56fbe28c}, !- Handle
  attic - vented,                         !- Name
  1,                                      !- Multiplier
  ,                                       !- Ceiling Height {m}
  356.390921899745,                       !- Volume {m3}
  ,                                       !- Floor Area {m2}
  ,                                       !- Zone Inside Convection Algorithm
  ,                                       !- Zone Outside Convection Algorithm
  ,                                       !- Zone Conditioning Equipment List Name
  {2da5c08c-8b36-4d40-86cc-8e74d8251775}, !- Zone Air Inlet Port List
  {c1fd5b5b-b348-450b-ac68-e6df50f0d98d}, !- Zone Air Exhaust Port List
  {b30b53e6-d9c4-4536-952f-93943908c684}, !- Zone Air Node Name
  {17fde9e7-2b9e-4dd2-8908-f19de6109cd1}, !- Zone Return Air Port List
  ,                                       !- Primary Daylighting Control Name
  ,                                       !- Fraction of Zone Controlled by Primary Daylighting Control
  ,                                       !- Secondary Daylighting Control Name
  ,                                       !- Fraction of Zone Controlled by Secondary Daylighting Control
  ,                                       !- Illuminance Map Name
  ,                                       !- Group Rendering Name
  ,                                       !- Thermostat Name
  No;                                     !- Use Ideal Air Loads

OS:Node,
  {0073c67d-11b4-46e1-aff8-d89ac075c276}, !- Handle
  Node 2,                                 !- Name
  {b30b53e6-d9c4-4536-952f-93943908c684}, !- Inlet Port
  ;                                       !- Outlet Port

OS:Connection,
  {b30b53e6-d9c4-4536-952f-93943908c684}, !- Handle
  {38bb4a78-756a-49d3-bec2-0eca56fbe28c}, !- Source Object
  11,                                     !- Outlet Port
  {0073c67d-11b4-46e1-aff8-d89ac075c276}, !- Target Object
  2;                                      !- Inlet Port

OS:PortList,
  {2da5c08c-8b36-4d40-86cc-8e74d8251775}, !- Handle
  {38bb4a78-756a-49d3-bec2-0eca56fbe28c}; !- HVAC Component

OS:PortList,
  {c1fd5b5b-b348-450b-ac68-e6df50f0d98d}, !- Handle
  {38bb4a78-756a-49d3-bec2-0eca56fbe28c}; !- HVAC Component

OS:PortList,
  {17fde9e7-2b9e-4dd2-8908-f19de6109cd1}, !- Handle
  {38bb4a78-756a-49d3-bec2-0eca56fbe28c}; !- HVAC Component

OS:Sizing:Zone,
  {9d11387d-16dd-4a74-8d2c-2d234ec61ac4}, !- Handle
  {38bb4a78-756a-49d3-bec2-0eca56fbe28c}, !- Zone or ZoneList Name
  SupplyAirTemperature,                   !- Zone Cooling Design Supply Air Temperature Input Method
  14,                                     !- Zone Cooling Design Supply Air Temperature {C}
  11.11,                                  !- Zone Cooling Design Supply Air Temperature Difference {deltaC}
  SupplyAirTemperature,                   !- Zone Heating Design Supply Air Temperature Input Method
  40,                                     !- Zone Heating Design Supply Air Temperature {C}
  11.11,                                  !- Zone Heating Design Supply Air Temperature Difference {deltaC}
  0.0085,                                 !- Zone Cooling Design Supply Air Humidity Ratio {kg-H2O/kg-air}
  0.008,                                  !- Zone Heating Design Supply Air Humidity Ratio {kg-H2O/kg-air}
  ,                                       !- Zone Heating Sizing Factor
  ,                                       !- Zone Cooling Sizing Factor
  DesignDay,                              !- Cooling Design Air Flow Method
  ,                                       !- Cooling Design Air Flow Rate {m3/s}
  ,                                       !- Cooling Minimum Air Flow per Zone Floor Area {m3/s-m2}
  ,                                       !- Cooling Minimum Air Flow {m3/s}
  ,                                       !- Cooling Minimum Air Flow Fraction
  DesignDay,                              !- Heating Design Air Flow Method
  ,                                       !- Heating Design Air Flow Rate {m3/s}
  ,                                       !- Heating Maximum Air Flow per Zone Floor Area {m3/s-m2}
  ,                                       !- Heating Maximum Air Flow {m3/s}
  ,                                       !- Heating Maximum Air Flow Fraction
  No,                                     !- Account for Dedicated Outdoor Air System
  NeutralSupplyAir,                       !- Dedicated Outdoor Air System Control Strategy
  autosize,                               !- Dedicated Outdoor Air Low Setpoint Temperature for Design {C}
  autosize,                               !- Dedicated Outdoor Air High Setpoint Temperature for Design {C}
  Sensible Load Only No Latent Load,      !- Zone Load Sizing Method
  HumidityRatioDifference,                !- Zone Latent Cooling Design Supply Air Humidity Ratio Input Method
  ,                                       !- Zone Dehumidification Design Supply Air Humidity Ratio {kgWater/kgDryAir}
  0.005,                                  !- Zone Cooling Design Supply Air Humidity Ratio Difference {kgWater/kgDryAir}
  HumidityRatioDifference,                !- Zone Latent Heating Design Supply Air Humidity Ratio Input Method
  ,                                       !- Zone Humidification Design Supply Air Humidity Ratio {kgWater/kgDryAir}
  0.005,                                  !- Zone Humidification Design Supply Air Humidity Ratio Difference {kgWater/kgDryAir}
  ,                                       !- Zone Humidistat Dehumidification Set Point Schedule Name
  ,                                       !- Zone Humidistat Humidification Set Point Schedule Name
  ,                                       !- Design Zone Air Distribution Effectiveness in Cooling Mode
  ,                                       !- Design Zone Air Distribution Effectiveness in Heating Mode
  ,                                       !- Design Zone Secondary Recirculation Fraction {dimensionless}
  ,                                       !- Design Minimum Zone Ventilation Efficiency {dimensionless}
  Coincident;                             !- Sizing Option

OS:ZoneHVAC:EquipmentList,
  {3a955e26-b679-4504-b69f-5fea4071bb99}, !- Handle
  Zone HVAC Equipment List 2,             !- Name
  {38bb4a78-756a-49d3-bec2-0eca56fbe28c}; !- Thermal Zone

OS:AdditionalProperties,
  {ae31140a-eebd-4e5f-8c59-6c1e689a1403}, !- Handle
  {38bb4a78-756a-49d3-bec2-0eca56fbe28c}, !- Object Name
  ObjectType,                             !- Feature Name 1
  String,                                 !- Feature Data Type 1
  attic - vented;                         !- Feature Value 1

OS:Space,
  {612dee47-86fb-426b-b287-82186e2ba848}, !- Handle
  attic - vented 1,                       !- Name
  ,                                       !- Space Type Name
  ,                                       !- Default Construction Set Name
  ,                                       !- Default Schedule Set Name
  ,                                       !- Direction of Relative North {deg}
  ,                                       !- X Origin {m}
  ,                                       !- Y Origin {m}
  ,                                       !- Z Origin {m}
  ,                                       !- Building Story Name
  {38bb4a78-756a-49d3-bec2-0eca56fbe28c}, !- Thermal Zone Name
  ,                                       !- Part of Total Floor Area
  ,                                       !- Design Specification Outdoor Air Object Name
  ,                                       !- Building Unit Name
  356.390921899745;                       !- Volume {m3}

OS:Material,
  {e17caa47-41c9-4619-99a0-1b5f40024da7}, !- Handle
  asphalt or fiberglass shingles,         !- Name
  Rough,                                  !- Roughness
  0.00635,                                !- Thickness {m}
  0.162714,                               !- Conductivity {W/m-K}
  1121.4,                                 !- Density {kg/m3}
  1465.45,                                !- Specific Heat {J/kg-K}
  0.9,                                    !- Thermal Absorptance
  0.85,                                   !- Solar Absorptance