
OS:Version,
  {07d812be-17e0-429b-abfe-abb5a3c5b74c}, !- Handle
  3.10.0;                                 !- Version Identifier

OS:SimulationControl,
  {b44ebb98-af5f-4c6d-97b6-f6780a35fb9b}, !- Handle
  ,                                       !- Do Zone Sizing Calculation
  ,                                       !- Do System Sizing Calculation
  ,                                       !- Do Plant Sizing Calculation
  No;                                     !- Run Simulation for Sizing Periods

OS:Timestep,
  {4348d073-1338-4e19-8dfc-1fa8236efcef}, !- Handle
  1;                                      !- Number of Timesteps per Hour

OS:ShadowCalculation,
  {12841466-963d-4437-9311-624d6d47dd6a}, !- Handle
  PolygonClipping,                        !- Shading Calculation Method
  ,                                       !- Shading Calculation Update Frequency Method
  20,                                     !- Shading Calculation Update Frequency
  200,                                    !- Maximum Figures in Shadow Overlap Calculations
  ,                                       !- Polygon Clipping Algorithm
  512,                                    !- Pixel Counting Resolution
  ,                                       !- Sky Diffuse Modeling Algorithm
  No,                                     !- Output External Shading Calculation Results
  No,                                     !- Disable Self-Shading Within Shading Zone Groups
  No;                                     !- Disable Self-Shading From Shading Zone Groups to Other Zones

OS:SurfaceConvectionAlgorithm:Outside,
  {ce87174f-2c12-4315-84a8-50188549bcd9}, !- Handle
  DOE-2;                                  !- Algorithm

OS:SurfaceConvectionAlgorithm:Inside,
  {dc29f6b4-b896-42aa-8635-40ab016a2d23}, !- Handle
  TARP;                                   !- Algorithm

OS:ZoneCapacitanceMultiplier:ResearchSpecial,
  {c60980ec-deb1-4b7c-91e7-15db303df615}, !- Handle
  7,                                      !- Temperature Capacity Multiplier
  15,                                     !- Humidity Capacity Multiplier
  ;                                       !- Carbon Dioxide Capacity Multiplier

OS:ConvergenceLimits,
  {139a8dfe-1c69-49b0-ad24-4eadbd2b2fd3}, !- Handle
  0;                                      !- Minimum System Timestep {minutes}

OS:RunPeriod,
  {cf3e9af4-9215-418c-a194-6c4b21314b8c}, !- Handle
  Run Period 1,                           !- Name
  1,                                      !- Begin Month
  1,                                      !- Begin Day of Month
  12,                                     !- End Month
  31,                                     !- End Day of Month
  ,                                       !- Use Weather File Holidays and Special Days
  ,                                       !- Use Weather File Daylight Saving Period
  ,                                       !- Apply Weekend Holiday Rule
  ,                                       !- Use Weather File Rain Indicators
  ,                                       !- Use Weather File Snow Indicators
  ;                                       !- Number of Times Runperiod to be Repeated

OS:PerformancePrecisionTradeoffs,
  {62398a21-9e19-4e01-bc7c-f1929b781c60}, !- Handle
  ,                                       !- Use Coil Direct Solutions
  CarrollMRT;                             !- Zone Radiant Exchange Algorithm

OS:WeatherFile,
  {6387e6ef-730b-443e-8edc-2da9945a4fa8}, !- Handle
  Buffalo Niagara Intl Ap,                !- City
  NY,                                     !- State Province Region
  USA,                                    !- Country
  TMY3,                                   !- Data Source
  725280,                                 !- WMO Number
  42.93,                                  !- Latitude {deg}
  -78.73,                                 !- Longitude {deg}
  -5,                                     !- Time Zone {hr}
  215,                                    !- Elevation {m}
  /Users/nmoore/github/urbanopt-example-geojson-project/example_project/weather/USA_NY_Buffalo-Greater.Buffalo.Intl.AP.725280_TMY3.epw, !- Url
  6B50E0FF,                               !- Checksum
  ,                                       !- Start Date Actual Year
  Sunday;                                 !- Start Day of Week

OS:YearDescription,
  {f5fa509a-91f9-4986-9af2-4c2fecab6e0a}, !- Handle
  2007,                                   !- Calendar Year
  ,                                       !- Day of Week for Start Day
  ;                                       !- Is Leap Year

OS:Site,
  {7c2251c6-d3fa-4d67-b2c8-bab3348dd897}, !- Handle
  Buffalo Niagara Intl Ap_NY,             !- Name
  42.93,                                  !- Latitude {deg}
  -78.73,                                 !- Longitude {deg}
  -5,                                     !- Time Zone {hr}
  215,                                    !- Elevation {m}
  Suburbs,                                !- Terrain
  Yes;                                    !- Keep Site Location Information

OS:RunPeriodControl:DaylightSavingTime,
  {37a5c7df-2e8f-495b-9808-27396ac14972}, !- Handle
  Mar 12,                                 !- Start Date
  Nov 5;                                  !- End Date

OS:Site:GroundTemperature:Shallow,
  {1a219d8e-414a-4e62-8a88-d9946e1d483a}, !- Handle
  4.30207395723828,                       !- January Surface Ground Temperature {C}
  2.29327249652502,                       !- February Surface Ground Temperature {C}
  2.13240047156047,                       !- March Surface Ground Temperature {C}
  3.08567940719286,                       !- April Surface Ground Temperature {C}
  6.91256312497526,                       !- May Surface Ground Temperature {C}
  10.7216195949507,                       !- June Surface Ground Temperature {C}
  14.0238679822574,                       !- July Surface Ground Temperature {C}
  16.1157611184724,                       !- August Surface Ground Temperature {C}
  16.2934789303462,                       !- September Surface Ground Temperature {C}
  14.5920754632847,                       !- October Surface Ground Temperature {C}
  11.374036348653,                        !- November Surface Ground Temperature {C}
  7.68182621661674;                       !- December Surface Ground Temperature {C}

OS:ThermalZone,
  {4f8897c1-8b44-4816-b66c-fa71a8437862}, !- Handle
  conditioned space,                      !- Name
  1,                                      !- Multiplier
  ,                                       !- Ceiling Height {m}
  692.06373070848,                        !- Volume {m3}
  ,                                       !- Floor Area {m2}
  ,                                       !- Zone Inside Convection Algorithm
  ,                                       !- Zone Outside Convection Algorithm
  ,                                       !- Zone Conditioning Equipment List Name
  {2933dbe3-0d11-4f48-aac9-ea6a8ce846b9}, !- Zone Air Inlet Port List
  {28062d70-191d-486c-8660-46223efe1173}, !- Zone Air Exhaust Port List
  {ef135be5-b603-4044-b8b3-d7a0b8c996b8}, !- Zone Air Node Name
  {84c70e80-bbd3-481f-8086-a5025ab6318c}, !- Zone Return Air Port List
  ,                                       !- Primary Daylighting Control Name
  ,                                       !- Fraction of Zone Controlled by Primary Daylighting Control
  ,                                       !- Secondary Daylighting Control Name
  ,                                       !- Fraction of Zone Controlled by Secondary Daylighting Control
  ,                                       !- Illuminance Map Name
  ,                                       !- Group Rendering Name
  {7ef4e855-8b42-4a0d-acda-59eb7af035cb}, !- Thermostat Name
  No;                                     !- Use Ideal Air Loads

OS:Node,
  {0a3b61ff-5c33-439f-af0e-eb7d629f1f7f}, !- Handle
  Node 1,                                 !- Name
  {ef135be5-b603-4044-b8b3-d7a0b8c996b8}, !- Inlet Port
  ;                                       !- Outlet Port

OS:Connection,
  {ef135be5-b603-4044-b8b3-d7a0b8c996b8}, !- Handle
  {4f8897c1-8b44-4816-b66c-fa71a8437862}, !- Source Object
  11,                                     !- Outlet Port
  {0a3b61ff-5c33-439f-af0e-eb7d629f1f7f}, !- Target Object
  2;                                      !- Inlet Port

OS:PortList,
  {2933dbe3-0d11-4f48-aac9-ea6a8ce846b9}, !- Handle
  {4f8897c1-8b44-4816-b66c-fa71a8437862}, !- HVAC Component
  {c5f785c7-c300-4d33-a52b-7b1437f76fe2}; !- Port 1

OS:PortList,
  {28062d70-191d-486c-8660-46223efe1173}, !- Handle
  {4f8897c1-8b44-4816-b66c-fa71a8437862}; !- HVAC Component

OS:PortList,
  {84c70e80-bbd3-481f-8086-a5025ab6318c}, !- Handle
  {4f8897c1-8b44-4816-b66c-fa71a8437862}, !- HVAC Component
  {9644f9e1-8a41-41e5-a464-e293c740ce2a}; !- Port 1

OS:Sizing:Zone,
  {466c4331-ab9d-4fcc-ac8f-f433223acb83}, !- Handle
  {4f8897c1-8b44-4816-b66c-fa71a8437862}, !- Zone or ZoneList Name
  SupplyAirTemperature,                   !- Zone Cooling Design Supply Air Temperature Input Method
  14,                                     !- Zone Cooling Design Supply Air Temperature {C}
  11.11,                                  !- Zone Cooling Design Supply Air Temperature Difference {deltaC}
  SupplyAirTemperature,                   !- Zone Heating Design Supply Air Temperature Input Method
  40,                                     !- Zone Heating Design Supply Air Temperature {C}
  11.11,                                  !- Zone Heating Design Supply Air Temperature Difference {deltaC}
  0.0085,                                 !- Zone Cooling Design Supply Air Humidity Ratio {kg-H2O/kg-air}
  0.008,                                  !- Zone Heating Design Supply Air Humidity Ratio {kg-H2O/kg-air}
  ,                                       !- Zone Heating Sizing Factor
  ,                                       !- Zone Cooling Sizing Factor
  DesignDay,                              !- Cooling Design Air Flow Method
  ,                                       !- Cooling Design Air Flow Rate {m3/s}
  ,                                       !- Cooling Minimum Air Flow per Zone Floor Area {m3/s-m2}
  ,                                       !- Cooling Minimum Air Flow {m3/s}
  ,                                       !- Cooling Minimum Air Flow Fraction
  DesignDay,                              !- Heating Design Air Flow Method
  ,                                       !- Heating Design Air Flow Rate {m3/s}
  ,                                       !- Heating Maximum Air Flow per Zone Floor Area {m3/s-m2}
  ,                                       !- Heating Maximum Air Flow {m3/s}
  ,                                       !- Heating Maximum Air Flow Fraction
  No,                                     !- Account for Dedicated Outdoor Air System
  NeutralSupplyAir,                       !- Dedicated Outdoor Air System Control Strategy
  autosize,                               !- Dedicated Outdoor Air Low Setpoint Temperature for Design {C}
  autosize,                               !- Dedicated Outdoor Air High Setpoint Temperature for Design {C}
  Sensible Load Only No Latent Load,      !- Zone Load Sizing Method
  HumidityRatioDifference,                !- Zone Latent Cooling Design Supply Air Humidity Ratio Input Method
  ,                                       !- Zone Dehumidification Design Supply Air Humidity Ratio {kgWater/kgDryAir}
  0.005,                                  !- Zone Cooling Design Supply Air Humidity Ratio Difference {kgWater/kgDryAir}
  HumidityRatioDifference,                !- Zone Latent Heating Design Supply Air Humidity Ratio Input Method
  ,                                       !- Zone Humidification Design Supply Air Humidity Ratio {kgWater/kgDryAir}
  0.005,                                  !- Zone Humidification Design Supply Air Humidity Ratio Difference {kgWater/kgDryAir}
  ,                                       !- Zone Humidistat Dehumidification Set Point Schedule Name
  ,                                       !- Zone Humidistat Humidification Set Point Schedule Name
  ,                                       !- Design Zone Air Distribution Effectiveness in Cooling Mode
  ,                                       !- Design Zone Air Distribution Effectiveness in Heating Mode
  ,                                       !- Design Zone Secondary Recirculation Fraction {dimensionless}
  ,                                       !- Design Minimum Zone Ventilation Efficiency {dimensionless}
  Coincident;                             !- Sizing Option

OS:ZoneHVAC:EquipmentList,
  {1e395089-ec56-4824-8b2b-f249e55e7fa7}, !- Handle
  Zone HVAC Equipment List 1,             !- Name
  {4f8897c1-8b44-4816-b66c-fa71a8437862}, !- Thermal Zone
  ,                                       !- Load Distribution Scheme
  {df1f41e8-311d-4bca-9e58-95d67481f3d8}, !- Zone Equipment 1
  1,                                      !- Zone Equipment Cooling Sequence 1
  1,                                      !- Zone Equipment Heating or No-Load Sequence 1
  {e97b13e0-602c-421a-bdf6-8a335f7bf518}, !- Zone Equipment Sequential Cooling Fraction Schedule Name 1
  {dc8262be-1e28-4b42-9aed-eab64d76105f}; !- Zone Equipment Sequential Heating Fraction Schedule Name 1

OS:AdditionalProperties,
  {6f94e301-33ba-482a-8a8d-4a30251968ff}, !- Handle
  {4f8897c1-8b44-4816-b66c-fa71a8437862}, !- Object Name
  ObjectType,                             !- Feature Name 1
  String,                                 !- Feature Data Type 1
  conditioned space;                      !- Feature Value 1

OS:Space,
  {a5ef0fe9-7195-4358-88e5-f52e23e5676d}, !- Handle
  conditioned space 1,                    !- Name
  ,                                       !- Space Type Name
  ,                                       !- Default Construction Set Name
  ,                                       !- Default Schedule Set Name
  ,                                       !- Direction of Relative North {deg}
  ,                                       !- X Origin {m}
  ,                                       !- Y Origin {m}
  ,                                       !- Z Origin {m}
  ,                                       !- Building Story Name
  {4f8897c1-8b44-4816-b66c-fa71a8437862}, !- Thermal Zone Name
  ,                                       !- Part of Total Floor Area
  ,                                       !- Design Specification Outdoor Air Object Name
  ,                                       !- Building Unit Name
  692.06373070848;                        !- Volume {m3}

OS:Schedule:Ruleset,
  {5d1c3120-f9b1-4e60-a20a-e304a0dccd0b}, !- Handle
  heating setpoint,                       !- Name
  {dc9f001a-b9c7-4617-b991-5979e4af1459}, !- Schedule Type Limits Name
  {c736d03d-ce66-4e5c-a95d-a09dbf9a49c5}; !- Default Day Schedule Name

OS:Schedule:Day,
  {c736d03d-ce66-4e5c-a95d-a09dbf9a49c5}, !- Handle
  heating setpoint default day,           !- Name
  {dc9f001a-b9c7-4617-b991-5979e4af1459}, !- Schedule Type Limits Name
  ,                                       !- Interpolate to Timestep
  24,                                     !- Hour 1
  0,                                      !- Minute 1
  0;                                      !- Value Until Time 1

OS:Schedule:Rule,
  {3d6b80b0-ad5f-43bc-bdb9-73ea7e19b412}, !- Handle
  heating setpoint allday rule,           !- Name
  {5d1c3120-f9b1-4e60-a20a-e304a0dccd0b}, !- Schedule Ruleset Name
  0,                                      !- Rule Order
  {81940429-fc46-4435-bb3c-d2fcb90fd69e}, !- Day Schedule Name
  Yes,                                    !- Apply Sunday
  Yes,                                    !- Apply Monday
  Yes,                                    !- Apply Tuesday
  Yes,                                    !- Apply Wednesday
  Yes,                                    !- Apply Thursday
  Yes,                                    !- Apply Friday
  Yes,                                    !- Apply Saturday
  DateRange,                              !- Date Specification Type
  1,                                      !- Start Month
  1,                                      !- Start Day
  12,                                     !- End Month
  31;                                     !- End Day

OS:Schedule:Day,
  {81940429-fc46-4435-bb3c-d2fcb90fd69e}, !- Handle
  heating setpoint day,                   !- Name
  {dc9f001a-b9c7-4617-b991-5979e4af1459}, !- Schedule Type Limits Name
  ,                                       !- Interpolate to Timestep
  24,                                     !- Hour 1
  0,                                      !- Minute 1
  20;                                     !- Value Until Time 1

OS:Schedule:Ruleset,
  {f3120a30-6166-4520-9ccb-3ce40e44ceb8}, !- Handle
  cooling setpoint,                       !- Name
  {dc9f001a-b9c7-4617-b991-5979e4af1459}, !- Schedule Type Limits Name
  {4ff47ed6-064f-4784-9f8c-cd4cebbccdef}; !- Default Day Schedule Name

OS:Schedule:Day,
  {4ff47ed6-064f-4784-9f8c-cd4cebbccdef}, !- Handle
  cooling setpoint default day,           !- Name
  {dc9f001a-b9c7-4617-b991-5979e4af1459}, !- Schedule Type Limits Name
  ,                                       !- Interpolate to Timestep
  24,                                     !- Hour 1
  0,                                      !- Minute 1
  0;                                      !- Value Until Time 1

OS:Schedule:Rule,
  {d2c01f05-ba84-431f-9b5e-bb8face3e7cc}, !- Handle
  cooling setpoint allday rule,           !- Name
  {f3120a30-6166-4520-9ccb-3ce40e44ceb8}, !- Schedule Ruleset Name
  0,                                      !- Rule Order
  {cf86a9ea-57b0-4bea-a4e6-c745c626c6f5}, !- Day Schedule Name
  Yes,                                    !- Apply Sunday
  Yes,                                    !- Apply Monday
  Yes,                                    !- Apply Tuesday
  Yes,                                    !- Apply Wednesday
  Yes,                                    !- Apply Thursday
  Yes,                                    !- Apply Friday
  Yes,                                    !- Apply Saturday
  DateRange,                              !- Date Specification Type
  1,                                      !- Start Month
  1,                                      !- Start Day
  12,                                     !- End Month
  31;                                     !- End Day

OS:Schedule:Day,
  {cf86a9ea-57b0-4bea-a4e6-c745c626c6f5}, !- Handle
  cooling setpoint day,                   !- Name
  {dc9f001a-b9c7-4617-b991-5979e4af1459}, !- Schedule Type Limits Name
  ,                                       !- Interpolate to Timestep
  24,                                     !- Hour 1
  0,                                      !- Minute 1
  25.5555555555556;                       !- Value Until Time 1

OS:ThermostatSetpoint:DualSetpoint,
  {7ef4e855-8b42-4a0d-acda-59eb7af035cb}, !- Handle
  conditioned space temperature setpoint, !- Name
  {5d1c3120-f9b1-4e60-a20a-e304a0dccd0b}, !- Heating Setpoint Temperature Schedule Name
  {f3120a30-6166-4520-9ccb-3ce40e44ceb8}, !- Cooling Setpoint Temperature Schedule Name
  0;                                      !- Temperature Difference Between Cutout And Setpoint {deltaC}

OS:ScheduleTypeLimits,
  {dc9f001a-b9c7-4617-b991-5979e4af1459}, !- Handle
  Temperature,                            !- Name
  ,                                       !- Lower Limit Value
  ,                                       !- Upper Limit Value
  Continuous,                             !- Numeric Type
  Temperature;                            !- Unit Type

OS:Surface,
  {8653773a-5f62-43cf-8b80-d9c6bf115c7e}, !- Handle
  Roof1,                                  !- Name
  RoofCeiling,                            !- Surface Type
  {e11bca04-36be-4d6b-a797-cbdd8d5764c5}, !- Construction Name
  {a5ef0fe9-7195-4358-88e5-f52e23e5676d}, !- Space Name
  Outdoors,                               !- Outside Boundary Condition
  ,                                       !- Outside Boundary Condition Object
  SunExposed,                             !- Sun Exposure
  WindExposed,                            !- Wind Exposure
  ,                                       !- View Factor to Ground
  ,                                       !- Number of Vertices
  -8.42346109387347, 8.42346109387347, 2.4384, !- X,Y,Z Vertex 1 {m}
  -8.42346109387347, -8.42346109387347, 2.4384, !- X,Y,Z Vertex 2 {m}
  8.42346109387347, -8.42346109387347, 2.4384, !- X,Y,Z Vertex 3 {m}
  8.42346109387347, 8.42346109387347, 2.4384; !- X,Y,Z Vertex 4 {m}

OS:AdditionalProperties,
  {2c61f095-c699-4d1a-8b17-1cdb8b1cd600}, !- Handle
  {8653773a-5f62-43cf-8b80-d9c6bf115c7e}, !- Object Name
  Length,                                 !- Feature Name 1
  Double,                                 !- Feature Data Type 1
  55.27205442174192,                      !- Feature Value 1
  Width,                                  !- Feature Name 2
  Double,                                 !- Feature Data Type 2
  55.272054421741913,                     !- Feature Value 2
  Azimuth,                                !- Feature Name 3
  Integer,                                !- Feature Data Type 3
  0,                                      !- Feature Value 3
  Tilt,                                   !- Feature Name 4
  Double,                                 !- Feature Data Type 4
  0,                                      !- Feature Value 4
  SurfaceType,                            !- Feature Name 5
  String,                                 !- Feature Data Type 5
  Roof;                                   !- Feature Value 5

OS:Material,
  {570c3254-006e-490b-8eab-af3252197aa4}, !- Handle
  asphalt or fiberglass shingles,         !- Name
  Rough,                                  !- Roughness
  0.00635,                                !- Thickness {m}
  0.162714,                               !- Conductivity {W/m-K}
  1121.4,                                 !- Density {kg/m3}
  1465.45,                                !- Specific Heat {J/kg-K}
  0.9,                                    !- Thermal Absorptance
  0.85,                                   !- Solar Absorptance
  0.85;                                   !- Visible Absorptance

OS:Material,
  {f866f48f-a109-4394-9a15-99348f6f4603}, !- Handle
  roof stud and cavity,                   !- Name
  Rough,                                  !- Roughness
  0.0889,                                 !- Thickness {m}
  0.491900632004487,                      !- Conductivity {W/m-K}
  50.32683,                               !- Density {kg/m3}
  1063.80987585548,                       !- Specific Heat {J/kg-K}
  0.9,                                    !- Thermal Absorptance
  0.7,                                    !- Solar Absorptance
  0.7;                                    !- Visible Absorptance

OS:Material,
  {dc590092-9e27-4aea-a6d2-5664ba6394ee}, !- Handle
  gypsum board,                           !- Name
  Rough,                                  !- Roughness
  0.00254,                                !- Thickness {m}
  0.1602906,                              !- Conductivity {W/m-K}
  801,                                    !- Density {kg/m3}
  837.4,                                  !- Specific Heat {J/kg-K}
  0.9,                                    !- Thermal Absorptance
  0.6,                                    !- Solar Absorptance
  0.6;                                    !- Visible Absorptance

OS:Construction,
  {e11bca04-36be-4d6b-a797-cbdd8d5764c5}, !- Handle
  Roof1 construction,                     !- Name
  ,                                       !- Surface Rendering Name
  {570c3254-006e-490b-8eab-af3252197aa4}, !- Layer 1
  {f866f48f-a109-4394-9a15-99348f6f4603}, !- Layer 2
  {dc590092-9e27-4aea-a6d2-5664ba6394ee}; !- Layer 3

OS:Surface,
  {0d41fa2a-359a-4c76-8388-4a15f3b4bdde}, !- Handle
  Wall1,                                  !- Name
  Wall,                                   !- Surface Type
  {13cd8c3b-4be1-4966-a592-858ade146e20}, !- Construction Name
  {a5ef0fe9-7195-4358-88e5-f52e23e5676d}, !- Space Name
  Outdoors,                               !- Outside Boundary Condition
  ,                                       !- Outside Boundary Condition Object
  SunExposed,                             !- Sun Exposure
  WindExposed,                            !- Wind Exposure
  ,                                       !- View Factor to Ground
  ,                                       !- Number of Vertices
  -13.6265098242187, 15.6365136527044, 0, !- X,Y,Z Vertex 1 {m}
  -13.6265098242187, 15.6365136527044, 2.4384, !- X,Y,Z Vertex 2 {m}
  5.90736017578134, 15.6365136527044, 2.4384, !- X,Y,Z Vertex 3 {m}
  5.90736017578134, 15.6365136527044, 0;  !- X,Y,Z Vertex 4 {m}

OS:AdditionalProperties,
  {4fdd27a0-b199-4106-9456-377ab4c85687}, !- Handle
  {0d41fa2a-359a-4c76-8388-4a15f3b4bdde}, !- Object Name
  Length,                                 !- Feature Name 1
  Double,                                 !- Feature Data Type 1
  64.087499999999991,                     !- Feature Value 1
  Azimuth,                                !- Feature Name 2
  Integer,                                !- Feature Data Type 2
  0,                                      !- Feature Value 2
  Tilt,                                   !- Feature Name 3
  Double,                                 !- Feature Data Type 3
  90,                                     !- Feature Value 3
  SurfaceType,                            !- Feature Name 4
  String,                                 !- Feature Data Type 4
  Wall;                                   !- Feature Value 4

OS:Material,
  {0c27b0d2-e649-42f1-87b9-c51aed8f4c0a}, !- Handle
  wood siding,                            !- Name
  Rough,                                  !- Roughness
  0.0254,                                 !- Thickness {m}
  0.1024175,                              !- Conductivity {W/m-K}
  544.68,                                 !- Density {kg/m3}
  1172.36,                                !- Specific Heat {J/kg-K}
  0.9,                                    !- Thermal Absorptance
  0.7,                                    !- Solar Absorptance
  0.7;                                    !- Visible Absorptance

OS:Material,
  {20515974-04cc-4d2d-992f-fb88250b61c9}, !- Handle
  osb sheathing 0.5 in.,                  !- Name
  Rough,                                  !- Roughness
  0.0127,                                 !- Thickness {m}
  0.1154577,                              !- Conductivity {W/m-K}
  512.64,                                 !- Density {kg/m3}
  1214.23,                                !- Specific Heat {J/kg-K}
  0.9,                                    !- Thermal Absorptance
  0.7,                                    !- Solar Absorptance
  0.7;                                    !- Visible Absorptance

OS:Material,
  {f0baf780-80f6-4dac-948a-97847f93e823}, !- Handle
  wall stud and cavity,                   !- Name
  Rough,                                  !- Roughness
  0.1397,                                 !- Thickness {m}
  0.0929021674204099,                     !- Conductivity {W/m-K}
  139.0536,                               !- Density {kg/m3}
  1170.23755760369,                       !- Specific Heat {J/kg-K}
  0.9,                                    !- Thermal Absorptance
  0.7,                                    !- Solar Absorptance
  0.7;                                    !- Visible Absorptance

OS:Material,
  {6d45d6f7-2cf9-472e-a1f6-dd8928ec3bbf}, !- Handle
  gypsum board 1,                         !- Name
  Rough,                                  !- Roughness
  0.0127,                                 !- Thickness {m}
  0.1602906,                              !- Conductivity {W/m-K}
  801,                                    !- Density {kg/m3}
  837.4,                                  !- Specific Heat {J/kg-K}
  0.9,                                    !- Thermal Absorptance
  0.6,                                    !- Solar Absorptance
  0.6;                                    !- Visible Absorptance

OS:Construction,
  {13cd8c3b-4be1-4966-a592-858ade146e20}, !- Handle
  Wall1 construction,                     !- Name
  ,                                       !- Surface Rendering Name
  {0c27b0d2-e649-42f1-87b9-c51aed8f4c0a}, !- Layer 1
  {20515974-04cc-4d2d-992f-fb88250b61c9}, !- Layer 2
  {f0baf780-80f6-4dac-948a-97847f93e823}, !- Layer 3
  {6d45d6f7-2cf9-472e-a1f6-dd8928ec3bbf}; !- Layer 4

OS:Surface,
  {719bc53d-06e5-4315-b435-fa3e636eaa3f}, !- Handle
  Wall2,                                  !- Name
  Wall,                                   !- Surface Type
  {422631dc-9e75-499d-9e66-72b601b2411b}, !- Construction Name
  {a5ef0fe9-7195-4358-88e5-f52e23e5676d}, !- Space Name
  Outdoors,                               !- Outside Boundary Condition
  ,                                       !- Outside Boundary Condition Object
  SunExposed,                             !- Sun Exposure
  WindExposed,                            !- Wind Exposure
  ,                                       !- View Factor to Ground
  ,                                       !- Number of Vertices
  15.6365136527044, -0.538581714242879, 0, !- X,Y,Z Vertex 1 {m}
  15.6365136527044, -0.538581714242879, 2.4384, !- X,Y,Z Vertex 2 {m}
  15.6365136527044, -10.3074217142429, 2.4384, !- X,Y,Z Vertex 3 {m}
  15.6365136527044, -10.3074217142429, 0; !- X,Y,Z Vertex 4 {m}

OS:AdditionalProperties,
  {443e938f-55e2-4225-8f85-977d63c925f2}, !- Handle
  {719bc53d-06e5-4315-b435-fa3e636eaa3f}, !- Object Name
  Length,                                 !- Feature Name 1
  Double,                                 !- Feature Data Type 1
  32.049999999999997,                     !- Feature Value 1
  Azimuth,                                !- Feature Name 2