
OS:Version,
  {36c84393-2602-4409-a0d5-de467f80dade}, !- Handle
  3.9.0;                                  !- Version Identifier

OS:SimulationControl,
  {4b6ee397-a280-42fb-af39-f7cfa17842f7}, !- Handle
  ,                                       !- Do Zone Sizing Calculation
  ,                                       !- Do System Sizing Calculation
  ,                                       !- Do Plant Sizing Calculation
  No;                                     !- Run Simulation for Sizing Periods

OS:Timestep,
  {a8426019-6467-4e60-87f2-95568cf9ba6a}, !- Handle
  1;                                      !- Number of Timesteps per Hour

OS:ShadowCalculation,
  {3b12e0e4-01f9-4bb2-91d5-4e45dd5adc9a}, !- Handle
  PolygonClipping,                        !- Shading Calculation Method
  ,                                       !- Shading Calculation Update Frequency Method
  20,                                     !- Shading Calculation Update Frequency
  200,                                    !- Maximum Figures in Shadow Overlap Calculations
  ,                                       !- Polygon Clipping Algorithm
  512,                                    !- Pixel Counting Resolution
  ,                                       !- Sky Diffuse Modeling Algorithm
  No,                                     !- Output External Shading Calculation Results
  No,                                     !- Disable Self-Shading Within Shading Zone Groups
  No;                                     !- Disable Self-Shading From Shading Zone Groups to Other Zones

OS:SurfaceConvectionAlgorithm:Outside,
  {61aee92a-a0bd-4941-a101-407e9e9171d4}, !- Handle
  DOE-2;                                  !- Algorithm

OS:SurfaceConvectionAlgorithm:Inside,
  {cac1ed5a-18b6-406e-9e02-10e7c3c655e8}, !- Handle
  TARP;                                   !- Algorithm

OS:ZoneCapacitanceMultiplier:ResearchSpecial,
  {525725a9-9dc6-48e4-82f9-ddc40eb7e7c3}, !- Handle
  7,                                      !- Temperature Capacity Multiplier
  15,                                     !- Humidity Capacity Multiplier
  ;                                       !- Carbon Dioxide Capacity Multiplier

OS:ConvergenceLimits,
  {c98d3bcf-f350-4f20-96e2-c211cc0713e6}, !- Handle
  0;                                      !- Minimum System Timestep {minutes}

OS:RunPeriod,
  {4e6d6fab-0016-4947-bbff-8ce38e78022b}, !- Handle
  Run Period 1,                           !- Name
  1,                                      !- Begin Month
  1,                                      !- Begin Day of Month
  12,                                     !- End Month
  31,                                     !- End Day of Month
  ,                                       !- Use Weather File Holidays and Special Days
  ,                                       !- Use Weather File Daylight Saving Period
  ,                                       !- Apply Weekend Holiday Rule
  ,                                       !- Use Weather File Rain Indicators
  ,                                       !- Use Weather File Snow Indicators
  ;                                       !- Number of Times Runperiod to be Repeated

OS:PerformancePrecisionTradeoffs,
  {fe1828e2-13e0-4a54-8cbf-61ea541319f7}, !- Handle
  ,                                       !- Use Coil Direct Solutions
  CarrollMRT;                             !- Zone Radiant Exchange Algorithm

OS:WeatherFile,
  {c0146243-35d8-41ff-837b-f42af1013478}, !- Handle
  Buffalo Niagara Intl Ap,                !- City
  NY,                                     !- State Province Region
  USA,                                    !- Country
  TMY3,                                   !- Data Source
  725280,                                 !- WMO Number
  42.93,                                  !- Latitude {deg}
  -78.73,                                 !- Longitude {deg}
  -5,                                     !- Time Zone {hr}
  215,                                    !- Elevation {m}
  /Users/nmoore/github/urbanopt-example-geojson-project/example_project/weather/USA_NY_Buffalo-Greater.Buffalo.Intl.AP.725280_TMY3.epw, !- Url
  6B50E0FF,                               !- Checksum
  ,                                       !- Start Date Actual Year
  Sunday;                                 !- Start Day of Week

OS:YearDescription,
  {1dd7a868-a6e7-4dd0-bd75-60b762da9489}, !- Handle
  2007,                                   !- Calendar Year
  ,                                       !- Day of Week for Start Day
  ;                                       !- Is Leap Year

OS:Site,
  {6a344b31-3f6e-495d-b493-b9ca87f825d3}, !- Handle
  Buffalo Niagara Intl Ap_NY,             !- Name
  42.93,                                  !- Latitude {deg}
  -78.73,                                 !- Longitude {deg}
  -5,                                     !- Time Zone {hr}
  215,                                    !- Elevation {m}
  Suburbs,                                !- Terrain
  Yes;                                    !- Keep Site Location Information

OS:RunPeriodControl:DaylightSavingTime,
  {4702c13a-957a-4f12-a30d-dff919f25d6d}, !- Handle
  Mar 12,                                 !- Start Date
  Nov 5;                                  !- End Date

OS:Site:GroundTemperature:Shallow,
  {c0dc6409-cf37-474a-a8ff-6c8748e18f32}, !- Handle
  4.30207395723828,                       !- January Surface Ground Temperature {C}
  2.29327249652502,                       !- February Surface Ground Temperature {C}
  2.13240047156047,                       !- March Surface Ground Temperature {C}
  3.08567940719286,                       !- April Surface Ground Temperature {C}
  6.91256312497526,                       !- May Surface Ground Temperature {C}
  10.7216195949507,                       !- June Surface Ground Temperature {C}
  14.0238679822574,                       !- July Surface Ground Temperature {C}
  16.1157611184724,                       !- August Surface Ground Temperature {C}
  16.2934789303462,                       !- September Surface Ground Temperature {C}
  14.5920754632847,                       !- October Surface Ground Temperature {C}
  11.374036348653,                        !- November Surface Ground Temperature {C}
  7.68182621661674;                       !- December Surface Ground Temperature {C}

OS:ThermalZone,
  {494a73d9-a712-411f-8fdb-cf91751e2e47}, !- Handle
  conditioned space,                      !- Name
  1,                                      !- Multiplier
  ,                                       !- Ceiling Height {m}
  692.06373070848,                        !- Volume {m3}
  ,                                       !- Floor Area {m2}
  ,                                       !- Zone Inside Convection Algorithm
  ,                                       !- Zone Outside Convection Algorithm
  ,                                       !- Zone Conditioning Equipment List Name
  {c64b0efb-4823-4ec7-afde-ee1ca72a0ef5}, !- Zone Air Inlet Port List
  {47e53da1-a7f4-4b47-be89-b668545ec700}, !- Zone Air Exhaust Port List
  {97748269-7236-4b44-9cf1-3423e2824293}, !- Zone Air Node Name
  {9d39df2f-4a6a-4c49-ad48-4fe7e6b0b290}, !- Zone Return Air Port List
  ,                                       !- Primary Daylighting Control Name
  ,                                       !- Fraction of Zone Controlled by Primary Daylighting Control
  ,                                       !- Secondary Daylighting Control Name
  ,                                       !- Fraction of Zone Controlled by Secondary Daylighting Control
  ,                                       !- Illuminance Map Name
  ,                                       !- Group Rendering Name
  {5cb129fa-2550-490f-a90d-4954ab2d88f5}, !- Thermostat Name
  No;                                     !- Use Ideal Air Loads

OS:Node,
  {ef57bdf9-410e-4793-9334-30eaf87c6df6}, !- Handle
  Node 1,                                 !- Name
  {97748269-7236-4b44-9cf1-3423e2824293}, !- Inlet Port
  ;                                       !- Outlet Port

OS:Connection,
  {97748269-7236-4b44-9cf1-3423e2824293}, !- Handle
  {494a73d9-a712-411f-8fdb-cf91751e2e47}, !- Source Object
  11,                                     !- Outlet Port
  {ef57bdf9-410e-4793-9334-30eaf87c6df6}, !- Target Object
  2;                                      !- Inlet Port

OS:PortList,
  {c64b0efb-4823-4ec7-afde-ee1ca72a0ef5}, !- Handle
  {494a73d9-a712-411f-8fdb-cf91751e2e47}, !- HVAC Component
  {a190bfb1-4d0f-450e-a1d0-a38a8de59ed6}; !- Port 1

OS:PortList,
  {47e53da1-a7f4-4b47-be89-b668545ec700}, !- Handle
  {494a73d9-a712-411f-8fdb-cf91751e2e47}; !- HVAC Component

OS:PortList,
  {9d39df2f-4a6a-4c49-ad48-4fe7e6b0b290}, !- Handle
  {494a73d9-a712-411f-8fdb-cf91751e2e47}, !- HVAC Component
  {c5ccf74a-48be-4e9f-92e1-049a928faed8}; !- Port 1

OS:Sizing:Zone,
  {82c8624c-ca40-47d5-8af4-50fd2b7beec0}, !- Handle
  {494a73d9-a712-411f-8fdb-cf91751e2e47}, !- Zone or ZoneList Name
  SupplyAirTemperature,                   !- Zone Cooling Design Supply Air Temperature Input Method
  14,                                     !- Zone Cooling Design Supply Air Temperature {C}
  11.11,                                  !- Zone Cooling Design Supply Air Temperature Difference {deltaC}
  SupplyAirTemperature,                   !- Zone Heating Design Supply Air Temperature Input Method
  40,                                     !- Zone Heating Design Supply Air Temperature {C}
  11.11,                                  !- Zone Heating Design Supply Air Temperature Difference {deltaC}
  0.0085,                                 !- Zone Cooling Design Supply Air Humidity Ratio {kg-H2O/kg-air}
  0.008,                                  !- Zone Heating Design Supply Air Humidity Ratio {kg-H2O/kg-air}
  ,                                       !- Zone Heating Sizing Factor
  ,                                       !- Zone Cooling Sizing Factor
  DesignDay,                              !- Cooling Design Air Flow Method
  ,                                       !- Cooling Design Air Flow Rate {m3/s}
  ,                                       !- Cooling Minimum Air Flow per Zone Floor Area {m3/s-m2}
  ,                                       !- Cooling Minimum Air Flow {m3/s}
  ,                                       !- Cooling Minimum Air Flow Fraction
  DesignDay,                              !- Heating Design Air Flow Method
  ,                                       !- Heating Design Air Flow Rate {m3/s}
  ,                                       !- Heating Maximum Air Flow per Zone Floor Area {m3/s-m2}
  ,                                       !- Heating Maximum Air Flow {m3/s}
  ,                                       !- Heating Maximum Air Flow Fraction
  No,                                     !- Account for Dedicated Outdoor Air System
  NeutralSupplyAir,                       !- Dedicated Outdoor Air System Control Strategy
  autosize,                               !- Dedicated Outdoor Air Low Setpoint Temperature for Design {C}
  autosize,                               !- Dedicated Outdoor Air High Setpoint Temperature for Design {C}
  Sensible Load Only No Latent Load,      !- Zone Load Sizing Method
  HumidityRatioDifference,                !- Zone Latent Cooling Design Supply Air Humidity Ratio Input Method
  ,                                       !- Zone Dehumidification Design Supply Air Humidity Ratio {kgWater/kgDryAir}
  0.005,                                  !- Zone Cooling Design Supply Air Humidity Ratio Difference {kgWater/kgDryAir}
  HumidityRatioDifference,                !- Zone Latent Heating Design Supply Air Humidity Ratio Input Method
  ,                                       !- Zone Humidification Design Supply Air Humidity Ratio {kgWater/kgDryAir}
  0.005,                                  !- Zone Humidification Design Supply Air Humidity Ratio Difference {kgWater/kgDryAir}
  ,                                       !- Zone Humidistat Dehumidification Set Point Schedule Name
  ,                                       !- Zone Humidistat Humidification Set Point Schedule Name
  ,                                       !- Design Zone Air Distribution Effectiveness in Cooling Mode
  ,                                       !- Design Zone Air Distribution Effectiveness in Heating Mode
  ,                                       !- Design Zone Secondary Recirculation Fraction {dimensionless}
  ,                                       !- Design Minimum Zone Ventilation Efficiency {dimensionless}
  Coincident;                             !- Sizing Option

OS:ZoneHVAC:EquipmentList,
  {263feceb-8d8a-4b8a-b1b9-c50643990aa0}, !- Handle
  Zone HVAC Equipment List 1,             !- Name
  {494a73d9-a712-411f-8fdb-cf91751e2e47}, !- Thermal Zone
  ,                                       !- Load Distribution Scheme
  {87fe5bee-dac0-4f3a-a014-7d48756ec65f}, !- Zone Equipment 1
  1,                                      !- Zone Equipment Cooling Sequence 1
  1,                                      !- Zone Equipment Heating or No-Load Sequence 1
  {ba703478-3fa4-4f70-8f89-d5a2bafb7d77}, !- Zone Equipment Sequential Cooling Fraction Schedule Name 1
  {b772a91c-3edd-4882-858d-196eb93d213d}; !- Zone Equipment Sequential Heating Fraction Schedule Name 1

OS:AdditionalProperties,
  {69582565-0c99-4641-846b-a3c459f6ea0d}, !- Handle
  {494a73d9-a712-411f-8fdb-cf91751e2e47}, !- Object Name
  ObjectType,                             !- Feature Name 1
  String,                                 !- Feature Data Type 1
  conditioned space;                      !- Feature Value 1

OS:Space,
  {e2ff5f47-a54c-4331-995e-1420417acf4f}, !- Handle
  conditioned space 1,                    !- Name
  ,                                       !- Space Type Name
  ,                                       !- Default Construction Set Name
  ,                                       !- Default Schedule Set Name
  ,                                       !- Direction of Relative North {deg}
  ,                                       !- X Origin {m}
  ,                                       !- Y Origin {m}
  ,                                       !- Z Origin {m}
  ,                                       !- Building Story Name
  {494a73d9-a712-411f-8fdb-cf91751e2e47}, !- Thermal Zone Name
  ,                                       !- Part of Total Floor Area
  ,                                       !- Design Specification Outdoor Air Object Name
  ,                                       !- Building Unit Name
  692.06373070848;                        !- Volume {m3}

OS:Schedule:Ruleset,
  {2e6aa219-aecd-4828-ac1b-c9d6e72ef5f4}, !- Handle
  heating setpoint,                       !- Name
  {09079b61-92e7-4314-9209-40a149043ec4}, !- Schedule Type Limits Name
  {4c271be0-b808-4d55-ae41-3c9311732672}; !- Default Day Schedule Name

OS:Schedule:Day,
  {4c271be0-b808-4d55-ae41-3c9311732672}, !- Handle
  heating setpoint default day,           !- Name
  {09079b61-92e7-4314-9209-40a149043ec4}, !- Schedule Type Limits Name
  ,                                       !- Interpolate to Timestep
  24,                                     !- Hour 1
  0,                                      !- Minute 1
  0;                                      !- Value Until Time 1

OS:Schedule:Rule,
  {3fb0957d-ca11-4fd6-8a0c-ab48343d611e}, !- Handle
  heating setpoint allday rule,           !- Name
  {2e6aa219-aecd-4828-ac1b-c9d6e72ef5f4}, !- Schedule Ruleset Name
  0,                                      !- Rule Order
  {83fa389c-e290-4464-8c08-9b8cd188685d}, !- Day Schedule Name
  Yes,                                    !- Apply Sunday
  Yes,                                    !- Apply Monday
  Yes,                                    !- Apply Tuesday
  Yes,                                    !- Apply Wednesday
  Yes,                                    !- Apply Thursday
  Yes,                                    !- Apply Friday
  Yes,                                    !- Apply Saturday
  DateRange,                              !- Date Specification Type
  1,                                      !- Start Month
  1,                                      !- Start Day
  12,                                     !- End Month
  31;                                     !- End Day

OS:Schedule:Day,
  {83fa389c-e290-4464-8c08-9b8cd188685d}, !- Handle
  heating setpoint day,                   !- Name
  {09079b61-92e7-4314-9209-40a149043ec4}, !- Schedule Type Limits Name
  ,                                       !- Interpolate to Timestep
  24,                                     !- Hour 1
  0,                                      !- Minute 1
  20;                                     !- Value Until Time 1

OS:Schedule:Ruleset,
  {d1d9b896-4d94-497d-a31f-835908c40a5b}, !- Handle
  cooling setpoint,                       !- Name
  {09079b61-92e7-4314-9209-40a149043ec4}, !- Schedule Type Limits Name
  {1bcea26c-194c-401c-ba43-669c7b59849d}; !- Default Day Schedule Name

OS:Schedule:Day,
  {1bcea26c-194c-401c-ba43-669c7b59849d}, !- Handle
  cooling setpoint default day,           !- Name
  {09079b61-92e7-4314-9209-40a149043ec4}, !- Schedule Type Limits Name
  ,                                       !- Interpolate to Timestep
  24,                                     !- Hour 1
  0,                                      !- Minute 1
  0;                                      !- Value Until Time 1

OS:Schedule:Rule,
  {d841243e-812e-4c06-9f43-357116bfefe9}, !- Handle
  cooling setpoint allday rule,           !- Name
  {d1d9b896-4d94-497d-a31f-835908c40a5b}, !- Schedule Ruleset Name
  0,                                      !- Rule Order
  {66b0dfd4-03e4-459b-9112-6f9777026e8a}, !- Day Schedule Name
  Yes,                                    !- Apply Sunday
  Yes,                                    !- Apply Monday
  Yes,                                    !- Apply Tuesday
  Yes,                                    !- Apply Wednesday
  Yes,                                    !- Apply Thursday
  Yes,                                    !- Apply Friday
  Yes,                                    !- Apply Saturday
  DateRange,                              !- Date Specification Type
  1,                                      !- Start Month
  1,                                      !- Start Day
  12,                                     !- End Month
  31;                                     !- End Day

OS:Schedule:Day,
  {66b0dfd4-03e4-459b-9112-6f9777026e8a}, !- Handle
  cooling setpoint day,                   !- Name
  {09079b61-92e7-4314-9209-40a149043ec4}, !- Schedule Type Limits Name
  ,                                       !- Interpolate to Timestep
  24,                                     !- Hour 1
  0,                                      !- Minute 1
  25.5555555555556;                       !- Value Until Time 1

OS:ThermostatSetpoint:DualSetpoint,
  {5cb129fa-2550-490f-a90d-4954ab2d88f5}, !- Handle
  conditioned space temperature setpoint, !- Name
  {2e6aa219-aecd-4828-ac1b-c9d6e72ef5f4}, !- Heating Setpoint Temperature Schedule Name
  {d1d9b896-4d94-497d-a31f-835908c40a5b}, !- Cooling Setpoint Temperature Schedule Name
  0;                                      !- Temperature Difference Between Cutout And Setpoint {deltaC}

OS:ScheduleTypeLimits,
  {09079b61-92e7-4314-9209-40a149043ec4}, !- Handle
  Temperature,                            !- Name
  ,                                       !- Lower Limit Value
  ,                                       !- Upper Limit Value
  Continuous,                             !- Numeric Type
  Temperature;                            !- Unit Type

OS:Surface,
  {896322f6-d8a7-480b-ace2-d60827b75830}, !- Handle
  Roof1,                                  !- Name
  RoofCeiling,                            !- Surface Type
  {2e530874-05c9-4e70-bdc5-07c5048263d2}, !- Construction Name
  {e2ff5f47-a54c-4331-995e-1420417acf4f}, !- Space Name
  Outdoors,                               !- Outside Boundary Condition
  ,                                       !- Outside Boundary Condition Object
  SunExposed,                             !- Sun Exposure
  WindExposed,                            !- Wind Exposure
  ,                                       !- View Factor to Ground
  ,                                       !- Number of Vertices
  -8.42346109387347, 8.42346109387347, 2.4384, !- X,Y,Z Vertex 1 {m}
  -8.42346109387347, -8.42346109387347, 2.4384, !- X,Y,Z Vertex 2 {m}
  8.42346109387347, -8.42346109387347, 2.4384, !- X,Y,Z Vertex 3 {m}
  8.42346109387347, 8.42346109387347, 2.4384; !- X,Y,Z Vertex 4 {m}

OS:AdditionalProperties,
  {99c8d581-0e5f-4419-8329-73081cc16392}, !- Handle
  {896322f6-d8a7-480b-ace2-d60827b75830}, !- Object Name
  Length,                                 !- Feature Name 1
  Double,                                 !- Feature Data Type 1
  55.27205442174192,                      !- Feature Value 1
  Width,                                  !- Feature Name 2
  Double,                                 !- Feature Data Type 2
  55.272054421741913,                     !- Feature Value 2
  Azimuth,                                !- Feature Name 3
  Integer,                                !- Feature Data Type 3
  0,                                      !- Feature Value 3
  Tilt,                                   !- Feature Name 4
  Double,                                 !- Feature Data Type 4
  0,                                      !- Feature Value 4
  SurfaceType,                            !- Feature Name 5
  String,                                 !- Feature Data Type 5
  Roof;                                   !- Feature Value 5

OS:Material,
  {4327faba-e130-45af-a406-12c41091d6a2}, !- Handle
  asphalt or fiberglass shingles,         !- Name
  Rough,                                  !- Roughness
  0.00635,                                !- Thickness {m}
  0.162714,                               !- Conductivity {W/m-K}
  1121.4,                                 !- Density {kg/m3}
  1465.45,                                !- Specific Heat {J/kg-K}
  0.9,                                    !- Thermal Absorptance
  0.85,                                   !- Solar Absorptance
  0.85;                                   !- Visible Absorptance

OS:Material,
  {d0625517-efb4-4ac3-a4a3-69133fab52ed}, !- Handle
  roof stud and cavity,                   !- Name
  Rough,                                  !- Roughness
  0.0889,                                 !- Thickness {m}
  0.491900632004487,                      !- Conductivity {W/m-K}
  50.32683,                               !- Density {kg/m3}
  1063.80987585548,                       !- Specific Heat {J/kg-K}
  0.9,                                    !- Thermal Absorptance
  0.7,                                    !- Solar Absorptance
  0.7;                                    !- Visible Absorptance

OS:Material,
  {b82e6a62-c708-4cf1-9251-a2282812e251}, !- Handle
  gypsum board,                           !- Name
  Rough,                                  !- Roughness
  0.00254,                                !- Thickness {m}
  0.1602906,                              !- Conductivity {W/m-K}
  801,                                    !- Density {kg/m3}
  837.4,                                  !- Specific Heat {J/kg-K}
  0.9,                                    !- Thermal Absorptance
  0.6,                                    !- Solar Absorptance
  0.6;                                    !- Visible Absorptance

OS:Construction,
  {2e530874-05c9-4e70-bdc5-07c5048263d2}, !- Handle
  Roof1 construction,                     !- Name
  ,                                       !- Surface Rendering Name
  {4327faba-e130-45af-a406-12c41091d6a2}, !- Layer 1
  {d0625517-efb4-4ac3-a4a3-69133fab52ed}, !- Layer 2
  {b82e6a62-c708-4cf1-9251-a2282812e251}; !- Layer 3

OS:Surface,
  {a2b2e31e-0be6-426f-af37-58c9127c3d6e}, !- Handle
  Wall1,                                  !- Name
  Wall,                                   !- Surface Type
  {7bfcb889-6af2-45a1-ac4a-3889c30b9bf7}, !- Construction Name
  {e2ff5f47-a54c-4331-995e-1420417acf4f}, !- Space Name
  Outdoors,                               !- Outside Boundary Condition
  ,                                       !- Outside Boundary Condition Object
  SunExposed,                             !- Sun Exposure
  WindExposed,                            !- Wind Exposure
  ,                                       !- View Factor to Ground
  ,                                       !- Number of Vertices
  -13.6265098242187, 15.6365136527044, 0, !- X,Y,Z Vertex 1 {m}
  -13.6265098242187, 15.6365136527044, 2.4384, !- X,Y,Z Vertex 2 {m}
  5.90736017578134, 15.6365136527044, 2.4384, !- X,Y,Z Vertex 3 {m}
  5.90736017578134, 15.6365136527044, 0;  !- X,Y,Z Vertex 4 {m}

OS:AdditionalProperties,
  {833f11ea-bd21-45f8-b2e8-614c6674767b}, !- Handle
  {a2b2e31e-0be6-426f-af37-58c9127c3d6e}, !- Object Name
  Length,                                 !- Feature Name 1
  Double,                                 !- Feature Data Type 1
  64.087499999999991,                     !- Feature Value 1
  Azimuth,                                !- Feature Name 2
  Integer,                                !- Feature Data Type 2
  0,                                      !- Feature Value 2
  Tilt,                                   !- Feature Name 3
  Double,                                 !- Feature Data Type 3
  90,                                     !- Feature Value 3
  SurfaceType,                            !- Feature Name 4
  String,                                 !- Feature Data Type 4
  Wall;                                   !- Feature Value 4

OS:Material,
  {7cbe2777-f4c3-43a8-8003-8e62755545fb}, !- Handle
  wood siding,                            !- Name
  Rough,                                  !- Roughness
  0.0254,                                 !- Thickness {m}
  0.1024175,                              !- Conductivity {W/m-K}
  544.68,                                 !- Density {kg/m3}
  1172.36,                                !- Specific Heat {J/kg-K}
  0.9,                                    !- Thermal Absorptance
  0.7,                                    !- Solar Absorptance
  0.7;                                    !- Visible Absorptance

OS:Material,
  {30ae35f3-d4d2-4437-9b71-12013209dfab}, !- Handle
  osb sheathing 0.5 in.,                  !- Name
  Rough,                                  !- Roughness
  0.0127,                                 !- Thickness {m}
  0.1154577,                              !- Conductivity {W/m-K}
  512.64,                                 !- Density {kg/m3}
  1214.23,                                !- Specific Heat {J/kg-K}
  0.9,                                    !- Thermal Absorptance
  0.7,                                    !- Solar Absorptance
  0.7;                                    !- Visible Absorptance

OS:Material,
  {1e54f018-9e6a-43de-9c9a-2834a88aed7f}, !- Handle
  wall stud and cavity,                   !- Name
  Rough,                                  !- Roughness
  0.1397,                                 !- Thickness {m}
  0.0929021674204099,                     !- Conductivity {W/m-K}
  139.0536,                               !- Density {kg/m3}
  1170.23755760369,                       !- Specific Heat {J/kg-K}
  0.9,                                    !- Thermal Absorptance
  0.7,                                    !- Solar Absorptance
  0.7;                                    !- Visible Absorptance

OS:Material,
  {85117b5a-bcfd-4589-b78b-d458eeaa1c07}, !- Handle
  gypsum board 1,                         !- Name
  Rough,                                  !- Roughness
  0.0127,                                 !- Thickness {m}
  0.1602906,                              !- Conductivity {W/m-K}
  801,                                    !- Density {kg/m3}
  837.4,                                  !- Specific Heat {J/kg-K}
  0.9,                                    !- Thermal Absorptance
  0.6,                                    !- Solar Absorptance
  0.6;                                    !- Visible Absorptance

OS:Construction,
  {7bfcb889-6af2-45a1-ac4a-3889c30b9bf7}, !- Handle
  Wall1 construction,                     !- Name
  ,                                       !- Surface Rendering Name
  {7cbe2777-f4c3-43a8-8003-8e62755545fb}, !- Layer 1
  {30ae35f3-d4d2-4437-9b71-12013209dfab}, !- Layer 2
  {1e54f018-9e6a-43de-9c9a-2834a88aed7f}, !- Layer 3
  {85117b5a-bcfd-4589-b78b-d458eeaa1c07}; !- Layer 4

OS:Surface,
  {cb42b180-8b49-494b-9c76-9598033e14d4}, !- Handle
  Wall2,                                  !- Name
  Wall,                                   !- Surface Type
  {cb21115e-aa27-4a76-8b36-7124e8bb310f}, !- Construction Name
  {e2ff5f47-a54c-4331-995e-1420417acf4f}, !- Space Name
  Outdoors,                               !- Outside Boundary Condition
  ,                                       !- Outside Boundary Condition Object
  SunExposed,                             !- Sun Exposure
  WindExposed,                            !- Wind Exposure
  ,                                       !- View Factor to Ground
  ,                                       !- Number of Vertices
  15.6365136527044, -0.538581714242879, 0, !- X,Y,Z Vertex 1 {m}
  15.6365136527044, -0.538581714242879, 2.4384, !- X,Y,Z Vertex 2 {m}
  15.6365136527044, -10.3074217142429, 2.4384, !- X,Y,Z Vertex 3 {m}
  15.6365136527044, -10.3074217142429, 0; !- X,Y,Z Vertex 4 {m}

OS:AdditionalProperties,
  {b33934bb-9e60-4aef-b820-4705ab74fb3c}, !- Handle
  {cb42b180-8b49-494b-9c76-9598033e14d4}, !- Object Name
  Length,                                 !- Feature Name 1
  Double,                                 !- Feature Data Type 1
  32.049999999999997,                     !- Feature Value 1
  Azimuth,                                !- Feature Name 2