
OS:Version,
  {7d4846a5-22e4-46ee-bcfa-96ff0ade79bd}, !- Handle
  3.9.0;                                  !- Version Identifier

OS:SimulationControl,
  {351754f0-ec00-4fd3-8a1f-7b1dd6f59e39}, !- Handle
  ,                                       !- Do Zone Sizing Calculation
  ,                                       !- Do System Sizing Calculation
  ,                                       !- Do Plant Sizing Calculation
  No;                                     !- Run Simulation for Sizing Periods

OS:Timestep,
  {cf428d1e-af12-44e0-8e07-6342eec37b06}, !- Handle
  1;                                      !- Number of Timesteps per Hour

OS:ShadowCalculation,
  {b9724b28-ad1c-4be1-a1c2-d9b79aabf4e6}, !- Handle
  PolygonClipping,                        !- Shading Calculation Method
  ,                                       !- Shading Calculation Update Frequency Method
  20,                                     !- Shading Calculation Update Frequency
  200,                                    !- Maximum Figures in Shadow Overlap Calculations
  ,                                       !- Polygon Clipping Algorithm
  512,                                    !- Pixel Counting Resolution
  ,                                       !- Sky Diffuse Modeling Algorithm
  No,                                     !- Output External Shading Calculation Results
  No,                                     !- Disable Self-Shading Within Shading Zone Groups
  No;                                     !- Disable Self-Shading From Shading Zone Groups to Other Zones

OS:SurfaceConvectionAlgorithm:Outside,
  {27f2acd5-ad14-44a8-a47f-7a4c11687626}, !- Handle
  DOE-2;                                  !- Algorithm

OS:SurfaceConvectionAlgorithm:Inside,
  {6ab3c112-1463-40d2-b4fc-5c1c49dbeaa2}, !- Handle
  TARP;                                   !- Algorithm

OS:ZoneCapacitanceMultiplier:ResearchSpecial,
  {1efea964-6091-452b-b32a-a8ad8c6cfae7}, !- Handle
  7,                                      !- Temperature Capacity Multiplier
  15,                                     !- Humidity Capacity Multiplier
  ;                                       !- Carbon Dioxide Capacity Multiplier

OS:ConvergenceLimits,
  {92647b10-588c-4439-9e1f-60a0303c266c}, !- Handle
  0;                                      !- Minimum System Timestep {minutes}

OS:RunPeriod,
  {f5013e45-70d0-4e3e-9876-266fd6efdb83}, !- Handle
  Run Period 1,                           !- Name
  1,                                      !- Begin Month
  1,                                      !- Begin Day of Month
  12,                                     !- End Month
  31,                                     !- End Day of Month
  ,                                       !- Use Weather File Holidays and Special Days
  ,                                       !- Use Weather File Daylight Saving Period
  ,                                       !- Apply Weekend Holiday Rule
  ,                                       !- Use Weather File Rain Indicators
  ,                                       !- Use Weather File Snow Indicators
  ;                                       !- Number of Times Runperiod to be Repeated

OS:PerformancePrecisionTradeoffs,
  {3a5174bf-042a-431b-b2d5-482d71075008}, !- Handle
  ,                                       !- Use Coil Direct Solutions
  CarrollMRT;                             !- Zone Radiant Exchange Algorithm

OS:WeatherFile,
  {b28f180a-e270-4327-985c-4fbc78944039}, !- Handle
  Buffalo Niagara Intl Ap,                !- City
  NY,                                     !- State Province Region
  USA,                                    !- Country
  TMY3,                                   !- Data Source
  725280,                                 !- WMO Number
  42.93,                                  !- Latitude {deg}
  -78.73,                                 !- Longitude {deg}
  -5,                                     !- Time Zone {hr}
  215,                                    !- Elevation {m}
  /Users/nmoore/github/urbanopt-example-geojson-project/example_project/weather/USA_NY_Buffalo-Greater.Buffalo.Intl.AP.725280_TMY3.epw, !- Url
  6B50E0FF,                               !- Checksum
  ,                                       !- Start Date Actual Year
  Sunday;                                 !- Start Day of Week

OS:YearDescription,
  {6d9af96c-549e-485a-affc-3ff2e3d8a575}, !- Handle
  2007,                                   !- Calendar Year
  ,                                       !- Day of Week for Start Day
  ;                                       !- Is Leap Year

OS:Site,
  {c2f191ec-f555-4ca0-9546-3bf03cdef71c}, !- Handle
  Buffalo Niagara Intl Ap_NY,             !- Name
  42.93,                                  !- Latitude {deg}
  -78.73,                                 !- Longitude {deg}
  -5,                                     !- Time Zone {hr}
  215,                                    !- Elevation {m}
  Suburbs,                                !- Terrain
  Yes;                                    !- Keep Site Location Information

OS:RunPeriodControl:DaylightSavingTime,
  {81b701a4-c2b5-48ae-b73e-05c8056390e9}, !- Handle
  Mar 12,                                 !- Start Date
  Nov 5;                                  !- End Date

OS:Site:GroundTemperature:Shallow,
  {31284851-28e8-497e-9e7d-3c842855bc5d}, !- Handle
  4.30207395723828,                       !- January Surface Ground Temperature {C}
  2.29327249652502,                       !- February Surface Ground Temperature {C}
  2.13240047156047,                       !- March Surface Ground Temperature {C}
  3.08567940719286,                       !- April Surface Ground Temperature {C}
  6.91256312497526,                       !- May Surface Ground Temperature {C}
  10.7216195949507,                       !- June Surface Ground Temperature {C}
  14.0238679822574,                       !- July Surface Ground Temperature {C}
  16.1157611184724,                       !- August Surface Ground Temperature {C}
  16.2934789303462,                       !- September Surface Ground Temperature {C}
  14.5920754632847,                       !- October Surface Ground Temperature {C}
  11.374036348653,                        !- November Surface Ground Temperature {C}
  7.68182621661674;                       !- December Surface Ground Temperature {C}

OS:ThermalZone,
  {b1e5add4-d170-48e0-a900-8a79f31fa327}, !- Handle
  conditioned space,                      !- Name
  1,                                      !- Multiplier
  ,                                       !- Ceiling Height {m}
  692.06373070848,                        !- Volume {m3}
  ,                                       !- Floor Area {m2}
  ,                                       !- Zone Inside Convection Algorithm
  ,                                       !- Zone Outside Convection Algorithm
  ,                                       !- Zone Conditioning Equipment List Name
  {9cf8e8f1-810c-4543-97ca-b5e07022d12e}, !- Zone Air Inlet Port List
  {fb3e7707-f2a1-434b-985d-28fc429b7cff}, !- Zone Air Exhaust Port List
  {29f9f5a2-73fb-4cb0-9b03-4ffa4230df30}, !- Zone Air Node Name
  {083b3e9d-2ae4-473a-8d34-b1fc39412141}, !- Zone Return Air Port List
  ,                                       !- Primary Daylighting Control Name
  ,                                       !- Fraction of Zone Controlled by Primary Daylighting Control
  ,                                       !- Secondary Daylighting Control Name
  ,                                       !- Fraction of Zone Controlled by Secondary Daylighting Control
  ,                                       !- Illuminance Map Name
  ,                                       !- Group Rendering Name
  {4f7f22d0-bf8b-4bc2-b8bb-62f33e4cb492}, !- Thermostat Name
  No;                                     !- Use Ideal Air Loads

OS:Node,
  {43450498-5711-48b9-83c7-04b2284eb94e}, !- Handle
  Node 1,                                 !- Name
  {29f9f5a2-73fb-4cb0-9b03-4ffa4230df30}, !- Inlet Port
  ;                                       !- Outlet Port

OS:Connection,
  {29f9f5a2-73fb-4cb0-9b03-4ffa4230df30}, !- Handle
  {b1e5add4-d170-48e0-a900-8a79f31fa327}, !- Source Object
  11,                                     !- Outlet Port
  {43450498-5711-48b9-83c7-04b2284eb94e}, !- Target Object
  2;                                      !- Inlet Port

OS:PortList,
  {9cf8e8f1-810c-4543-97ca-b5e07022d12e}, !- Handle
  {b1e5add4-d170-48e0-a900-8a79f31fa327}, !- HVAC Component
  {3ab4dc05-5888-461d-867d-fba1250b4598}; !- Port 1

OS:PortList,
  {fb3e7707-f2a1-434b-985d-28fc429b7cff}, !- Handle
  {b1e5add4-d170-48e0-a900-8a79f31fa327}; !- HVAC Component

OS:PortList,
  {083b3e9d-2ae4-473a-8d34-b1fc39412141}, !- Handle
  {b1e5add4-d170-48e0-a900-8a79f31fa327}, !- HVAC Component
  {4eae7913-c6fd-4e64-b75a-d5ebc8532bc0}; !- Port 1

OS:Sizing:Zone,
  {662f9f45-d448-4c58-8014-b418ac2e66db}, !- Handle
  {b1e5add4-d170-48e0-a900-8a79f31fa327}, !- Zone or ZoneList Name
  SupplyAirTemperature,                   !- Zone Cooling Design Supply Air Temperature Input Method
  14,                                     !- Zone Cooling Design Supply Air Temperature {C}
  11.11,                                  !- Zone Cooling Design Supply Air Temperature Difference {deltaC}
  SupplyAirTemperature,                   !- Zone Heating Design Supply Air Temperature Input Method
  40,                                     !- Zone Heating Design Supply Air Temperature {C}
  11.11,                                  !- Zone Heating Design Supply Air Temperature Difference {deltaC}
  0.0085,                                 !- Zone Cooling Design Supply Air Humidity Ratio {kg-H2O/kg-air}
  0.008,                                  !- Zone Heating Design Supply Air Humidity Ratio {kg-H2O/kg-air}
  ,                                       !- Zone Heating Sizing Factor
  ,                                       !- Zone Cooling Sizing Factor
  DesignDay,                              !- Cooling Design Air Flow Method
  ,                                       !- Cooling Design Air Flow Rate {m3/s}
  ,                                       !- Cooling Minimum Air Flow per Zone Floor Area {m3/s-m2}
  ,                                       !- Cooling Minimum Air Flow {m3/s}
  ,                                       !- Cooling Minimum Air Flow Fraction
  DesignDay,                              !- Heating Design Air Flow Method
  ,                                       !- Heating Design Air Flow Rate {m3/s}
  ,                                       !- Heating Maximum Air Flow per Zone Floor Area {m3/s-m2}
  ,                                       !- Heating Maximum Air Flow {m3/s}
  ,                                       !- Heating Maximum Air Flow Fraction
  No,                                     !- Account for Dedicated Outdoor Air System
  NeutralSupplyAir,                       !- Dedicated Outdoor Air System Control Strategy
  autosize,                               !- Dedicated Outdoor Air Low Setpoint Temperature for Design {C}
  autosize,                               !- Dedicated Outdoor Air High Setpoint Temperature for Design {C}
  Sensible Load Only No Latent Load,      !- Zone Load Sizing Method
  HumidityRatioDifference,                !- Zone Latent Cooling Design Supply Air Humidity Ratio Input Method
  ,                                       !- Zone Dehumidification Design Supply Air Humidity Ratio {kgWater/kgDryAir}
  0.005,                                  !- Zone Cooling Design Supply Air Humidity Ratio Difference {kgWater/kgDryAir}
  HumidityRatioDifference,                !- Zone Latent Heating Design Supply Air Humidity Ratio Input Method
  ,                                       !- Zone Humidification Design Supply Air Humidity Ratio {kgWater/kgDryAir}
  0.005,                                  !- Zone Humidification Design Supply Air Humidity Ratio Difference {kgWater/kgDryAir}
  ,                                       !- Zone Humidistat Dehumidification Set Point Schedule Name
  ,                                       !- Zone Humidistat Humidification Set Point Schedule Name
  ,                                       !- Design Zone Air Distribution Effectiveness in Cooling Mode
  ,                                       !- Design Zone Air Distribution Effectiveness in Heating Mode
  ,                                       !- Design Zone Secondary Recirculation Fraction {dimensionless}
  ,                                       !- Design Minimum Zone Ventilation Efficiency {dimensionless}
  Coincident;                             !- Sizing Option

OS:ZoneHVAC:EquipmentList,
  {3442badf-b1fa-4289-ad92-5693d81a2c73}, !- Handle
  Zone HVAC Equipment List 1,             !- Name
  {b1e5add4-d170-48e0-a900-8a79f31fa327}, !- Thermal Zone
  ,                                       !- Load Distribution Scheme
  {7a6d7998-c99b-4392-90e3-62e197f5ca10}, !- Zone Equipment 1
  1,                                      !- Zone Equipment Cooling Sequence 1
  1,                                      !- Zone Equipment Heating or No-Load Sequence 1
  {cace9278-e19c-4860-a61d-15697352a8f9}, !- Zone Equipment Sequential Cooling Fraction Schedule Name 1
  {f943c34e-60c3-49e3-8ae9-10c4f8ef0202}; !- Zone Equipment Sequential Heating Fraction Schedule Name 1

OS:AdditionalProperties,
  {c003723a-c39b-44cb-91c2-6c99f9f31d1b}, !- Handle
  {b1e5add4-d170-48e0-a900-8a79f31fa327}, !- Object Name
  ObjectType,                             !- Feature Name 1
  String,                                 !- Feature Data Type 1
  conditioned space;                      !- Feature Value 1

OS:Space,
  {6fb84753-42c7-42ce-8046-84dd307d15f4}, !- Handle
  conditioned space 1,                    !- Name
  ,                                       !- Space Type Name
  ,                                       !- Default Construction Set Name
  ,                                       !- Default Schedule Set Name
  ,                                       !- Direction of Relative North {deg}
  ,                                       !- X Origin {m}
  ,                                       !- Y Origin {m}
  ,                                       !- Z Origin {m}
  ,                                       !- Building Story Name
  {b1e5add4-d170-48e0-a900-8a79f31fa327}, !- Thermal Zone Name
  ,                                       !- Part of Total Floor Area
  ,                                       !- Design Specification Outdoor Air Object Name
  ,                                       !- Building Unit Name
  692.06373070848;                        !- Volume {m3}

OS:Schedule:Ruleset,
  {67c45746-5f7a-47f1-ab9f-cb246ecad9c0}, !- Handle
  heating setpoint,                       !- Name
  {5ef85a26-708b-4a56-a7f9-c0e71b25cc33}, !- Schedule Type Limits Name
  {9074dd87-a0f9-4375-bab3-fdb59a69fb63}; !- Default Day Schedule Name

OS:Schedule:Day,
  {9074dd87-a0f9-4375-bab3-fdb59a69fb63}, !- Handle
  heating setpoint default day,           !- Name
  {5ef85a26-708b-4a56-a7f9-c0e71b25cc33}, !- Schedule Type Limits Name
  ,                                       !- Interpolate to Timestep
  24,                                     !- Hour 1
  0,                                      !- Minute 1
  0;                                      !- Value Until Time 1

OS:Schedule:Rule,
  {51c2fd16-76ad-432d-824f-f4e1ea2aaba9}, !- Handle
  heating setpoint allday rule,           !- Name
  {67c45746-5f7a-47f1-ab9f-cb246ecad9c0}, !- Schedule Ruleset Name
  0,                                      !- Rule Order
  {26d3456a-cd1a-42bf-96fb-3d8b05001653}, !- Day Schedule Name
  Yes,                                    !- Apply Sunday
  Yes,                                    !- Apply Monday
  Yes,                                    !- Apply Tuesday
  Yes,                                    !- Apply Wednesday
  Yes,                                    !- Apply Thursday
  Yes,                                    !- Apply Friday
  Yes,                                    !- Apply Saturday
  DateRange,                              !- Date Specification Type
  1,                                      !- Start Month
  1,                                      !- Start Day
  12,                                     !- End Month
  31;                                     !- End Day

OS:Schedule:Day,
  {26d3456a-cd1a-42bf-96fb-3d8b05001653}, !- Handle
  heating setpoint day,                   !- Name
  {5ef85a26-708b-4a56-a7f9-c0e71b25cc33}, !- Schedule Type Limits Name
  ,                                       !- Interpolate to Timestep
  24,                                     !- Hour 1
  0,                                      !- Minute 1
  20;                                     !- Value Until Time 1

OS:Schedule:Ruleset,
  {24945b7f-e35c-465b-a669-c284711d4e9f}, !- Handle
  cooling setpoint,                       !- Name
  {5ef85a26-708b-4a56-a7f9-c0e71b25cc33}, !- Schedule Type Limits Name
  {5607acc0-99e2-4e8d-975e-3993d18849ef}; !- Default Day Schedule Name

OS:Schedule:Day,
  {5607acc0-99e2-4e8d-975e-3993d18849ef}, !- Handle
  cooling setpoint default day,           !- Name
  {5ef85a26-708b-4a56-a7f9-c0e71b25cc33}, !- Schedule Type Limits Name
  ,                                       !- Interpolate to Timestep
  24,                                     !- Hour 1
  0,                                      !- Minute 1
  0;                                      !- Value Until Time 1

OS:Schedule:Rule,
  {60167584-a3de-4a09-95f2-ff151c39fd85}, !- Handle
  cooling setpoint allday rule,           !- Name
  {24945b7f-e35c-465b-a669-c284711d4e9f}, !- Schedule Ruleset Name
  0,                                      !- Rule Order
  {28efb498-0195-49a4-a1cc-98e3c3ff01ed}, !- Day Schedule Name
  Yes,                                    !- Apply Sunday
  Yes,                                    !- Apply Monday
  Yes,                                    !- Apply Tuesday
  Yes,                                    !- Apply Wednesday
  Yes,                                    !- Apply Thursday
  Yes,                                    !- Apply Friday
  Yes,                                    !- Apply Saturday
  DateRange,                              !- Date Specification Type
  1,                                      !- Start Month
  1,                                      !- Start Day
  12,                                     !- End Month
  31;                                     !- End Day

OS:Schedule:Day,
  {28efb498-0195-49a4-a1cc-98e3c3ff01ed}, !- Handle
  cooling setpoint day,                   !- Name
  {5ef85a26-708b-4a56-a7f9-c0e71b25cc33}, !- Schedule Type Limits Name
  ,                                       !- Interpolate to Timestep
  24,                                     !- Hour 1
  0,                                      !- Minute 1
  25.5555555555556;                       !- Value Until Time 1

OS:ThermostatSetpoint:DualSetpoint,
  {4f7f22d0-bf8b-4bc2-b8bb-62f33e4cb492}, !- Handle
  conditioned space temperature setpoint, !- Name
  {67c45746-5f7a-47f1-ab9f-cb246ecad9c0}, !- Heating Setpoint Temperature Schedule Name
  {24945b7f-e35c-465b-a669-c284711d4e9f}, !- Cooling Setpoint Temperature Schedule Name
  0;                                      !- Temperature Difference Between Cutout And Setpoint {deltaC}

OS:ScheduleTypeLimits,
  {5ef85a26-708b-4a56-a7f9-c0e71b25cc33}, !- Handle
  Temperature,                            !- Name
  ,                                       !- Lower Limit Value
  ,                                       !- Upper Limit Value
  Continuous,                             !- Numeric Type
  Temperature;                            !- Unit Type

OS:Surface,
  {602e9af9-55f0-4641-8448-57a09e92ebf3}, !- Handle
  Roof1,                                  !- Name
  RoofCeiling,                            !- Surface Type
  {d401bedc-0115-4a4d-93a1-10c7a88f748a}, !- Construction Name
  {7dc8db1e-42d6-42b5-a000-30ae9f794d4e}, !- Space Name
  Outdoors,                               !- Outside Boundary Condition
  ,                                       !- Outside Boundary Condition Object
  SunExposed,                             !- Sun Exposure
  WindExposed,                            !- Wind Exposure
  ,                                       !- View Factor to Ground
  ,                                       !- Number of Vertices
  -18.7742033914137, 41.5974007452599, 2.4384, !- X,Y,Z Vertex 1 {m}
  -18.7742033914137, 33.6309759081827, 6.42161241853859, !- X,Y,Z Vertex 2 {m}
  -9.86746965474012, 33.6309759081827, 6.42161241853859, !- X,Y,Z Vertex 3 {m}
  -9.86746965474012, 41.5974007452599, 2.4384; !- X,Y,Z Vertex 4 {m}

OS:AdditionalProperties,
  {c06a4fae-91c3-4159-8674-c2f83c8dd3fd}, !- Handle
  {602e9af9-55f0-4641-8448-57a09e92ebf3}, !- Object Name
  Length,                                 !- Feature Name 1
  Double,                                 !- Feature Data Type 1
  29.221567377538118,                     !- Feature Value 1
  Width,                                  !- Feature Name 2
  Double,                                 !- Feature Data Type 2
  29.221567377538118,                     !- Feature Value 2
  Azimuth,                                !- Feature Name 3
  Integer,                                !- Feature Data Type 3
  0,                                      !- Feature Value 3
  Tilt,                                   !- Feature Name 4
  Double,                                 !- Feature Data Type 4
  0.5,                                    !- Feature Value 4
  SurfaceType,                            !- Feature Name 5
  String,                                 !- Feature Data Type 5
  Roof;                                   !- Feature Value 5

OS:ThermalZone,
  {cab27ca7-3e1f-4020-a70b-4d64995d3b75}, !- Handle
  attic - vented,                         !- Name
  1,                                      !- Multiplier
  ,                                       !- Ceiling Height {m}
  126.002877704413,                       !- Volume {m3}
  ,                                       !- Floor Area {m2}
  ,                                       !- Zone Inside Convection Algorithm
  ,                                       !- Zone Outside Convection Algorithm
  ,                                       !- Zone Conditioning Equipment List Name
  {a54a0b0c-4282-4648-81b5-bab318f28de4}, !- Zone Air Inlet Port List
  {728c1ecd-86c1-4140-ad77-cf4716407320}, !- Zone Air Exhaust Port List
  {d01a803a-4835-44b7-97ab-8aebbdb2038f}, !- Zone Air Node Name
  {ff551749-5443-4886-a1cf-44662d355ee8}, !- Zone Return Air Port List
  ,                                       !- Primary Daylighting Control Name
  ,                                       !- Fraction of Zone Controlled by Primary Daylighting Control
  ,                                       !- Secondary Daylighting Control Name
  ,                                       !- Fraction of Zone Controlled by Secondary Daylighting Control
  ,                                       !- Illuminance Map Name
  ,                                       !- Group Rendering Name
  ,                                       !- Thermostat Name
  No;                                     !- Use Ideal Air Loads

OS:Node,
  {ed19b655-1d10-42be-b4d5-1f48898b50c6}, !- Handle
  Node 2,                                 !- Name
  {d01a803a-4835-44b7-97ab-8aebbdb2038f}, !- Inlet Port
  ;                                       !- Outlet Port

OS:Connection,
  {d01a803a-4835-44b7-97ab-8aebbdb2038f}, !- Handle
  {cab27ca7-3e1f-4020-a70b-4d64995d3b75}, !- Source Object
  11,                                     !- Outlet Port
  {ed19b655-1d10-42be-b4d5-1f48898b50c6}, !- Target Object
  2;                                      !- Inlet Port

OS:PortList,
  {a54a0b0c-4282-4648-81b5-bab318f28de4}, !- Handle
  {cab27ca7-3e1f-4020-a70b-4d64995d3b75}; !- HVAC Component

OS:PortList,
  {728c1ecd-86c1-4140-ad77-cf4716407320}, !- Handle
  {cab27ca7-3e1f-4020-a70b-4d64995d3b75}; !- HVAC Component

OS:PortList,
  {ff551749-5443-4886-a1cf-44662d355ee8}, !- Handle
  {cab27ca7-3e1f-4020-a70b-4d64995d3b75}; !- HVAC Component

OS:Sizing:Zone,
  {484b6289-9c55-472d-9ab0-0f785911f1f3}, !- Handle
  {cab27ca7-3e1f-4020-a70b-4d64995d3b75}, !- Zone or ZoneList Name
  SupplyAirTemperature,                   !- Zone Cooling Design Supply Air Temperature Input Method
  14,                                     !- Zone Cooling Design Supply Air Temperature {C}
  11.11,                                  !- Zone Cooling Design Supply Air Temperature Difference {deltaC}
  SupplyAirTemperature,                   !- Zone Heating Design Supply Air Temperature Input Method
  40,                                     !- Zone Heating Design Supply Air Temperature {C}
  11.11,                                  !- Zone Heating Design Supply Air Temperature Difference {deltaC}
  0.0085,                                 !- Zone Cooling Design Supply Air Humidity Ratio {kg-H2O/kg-air}
  0.008,                                  !- Zone Heating Design Supply Air Humidity Ratio {kg-H2O/kg-air}
  ,                                       !- Zone Heating Sizing Factor
  ,                                       !- Zone Cooling Sizing Factor
  DesignDay,                              !- Cooling Design Air Flow Method
  ,                                       !- Cooling Design Air Flow Rate {m3/s}
  ,                                       !- Cooling Minimum Air Flow per Zone Floor Area {m3/s-m2}
  ,                                       !- Cooling Minimum Air Flow {m3/s}
  ,                                       !- Cooling Minimum Air Flow Fraction
  DesignDay,                              !- Heating Design Air Flow Method
  ,                                       !- Heating Design Air Flow Rate {m3/s}
  ,                                       !- Heating Maximum Air Flow per Zone Floor Area {m3/s-m2}
  ,                                       !- Heating Maximum Air Flow {m3/s}
  ,                                       !- Heating Maximum Air Flow Fraction
  No,                                     !- Account for Dedicated Outdoor Air System
  NeutralSupplyAir,                       !- Dedicated Outdoor Air System Control Strategy
  autosize,                               !- Dedicated Outdoor Air Low Setpoint Temperature for Design {C}
  autosize,                               !- Dedicated Outdoor Air High Setpoint Temperature for Design {C}
  Sensible Load Only No Latent Load,      !- Zone Load Sizing Method
  HumidityRatioDifference,                !- Zone Latent Cooling Design Supply Air Humidity Ratio Input Method
  ,                                       !- Zone Dehumidification Design Supply Air Humidity Ratio {kgWater/kgDryAir}
  0.005,                                  !- Zone Cooling Design Supply Air Humidity Ratio Difference {kgWater/kgDryAir}
  HumidityRatioDifference,                !- Zone Latent Heating Design Supply Air Humidity Ratio Input Method
  ,                                       !- Zone Humidification Design Supply Air Humidity Ratio {kgWater/kgDryAir}
  0.005,                                  !- Zone Humidification Design Supply Air Humidity Ratio Difference {kgWater/kgDryAir}
  ,                                       !- Zone Humidistat Dehumidification Set Point Schedule Name
  ,                                       !- Zone Humidistat Humidification Set Point Schedule Name
  ,                                       !- Design Zone Air Distribution Effectiveness in Cooling Mode
  ,                                       !- Design Zone Air Distribution Effectiveness in Heating Mode
  ,                                       !- Design Zone Secondary Recirculation Fraction {dimensionless}
  ,                                       !- Design Minimum Zone Ventilation Efficiency {dimensionless}
  Coincident;                             !- Sizing Option

OS:ZoneHVAC:EquipmentList,
  {8add89b9-d958-42fb-9e45-ccc2459523c4}, !- Handle
  Zone HVAC Equipment List 2,             !- Name
  {cab27ca7-3e1f-4020-a70b-4d64995d3b75}; !- Thermal Zone

OS:AdditionalProperties,
  {151072fa-94a6-424d-bf94-208106599336}, !- Handle
  {cab27ca7-3e1f-4020-a70b-4d64995d3b75}, !- Object Name
  ObjectType,                             !- Feature Name 1
  String,                                 !- Feature Data Type 1
  attic - vented;                         !- Feature Value 1

OS:Space,
  {7dc8db1e-42d6-42b5-a000-30ae9f794d4e}, !- Handle
  attic - vented 1,                       !- Name
  ,                                       !- Space Type Name
  ,                                       !- Default Construction Set Name
  ,                                       !- Default Schedule Set Name
  ,                                       !- Direction of Relative North {deg}
  ,                                       !- X Origin {m}
  ,                                       !- Y Origin {m}
  ,                                       !- Z Origin {m}
  ,                                       !- Building Story Name
  {cab27ca7-3e1f-4020-a70b-4d64995d3b75}, !- Thermal Zone Name
  ,                                       !- Part of Total Floor Area
  ,                                       !- Design Specification Outdoor Air Object Name
  ,                                       !- Building Unit Name
  126.002877704413;                       !- Volume {m3}

OS:Material,
  {47ca9f7b-1949-4b49-815e-cc761f2d1a03}, !- Handle
  asphalt or fiberglass shingles,         !- Name
  Rough,                                  !- Roughness
  0.00635,                                !- Thickness {m}
  0.162714,                               !- Conductivity {W/m-K}
  1121.4,                                 !- Density {kg/m3}
  1465.45,                                !- Specific Heat {J/kg-K}
  0.9,                                    !- Thermal Absorptance
  0.85,                                   !- Solar Absorptance