
OS:Version,
  {d28e5032-5f7d-408c-a7dc-cacb9e5c266a}, !- Handle
  3.10.0;                                 !- Version Identifier

OS:SimulationControl,
  {6c9ec451-8315-43cd-949c-be007b72b8a3}, !- Handle
  ,                                       !- Do Zone Sizing Calculation
  ,                                       !- Do System Sizing Calculation
  ,                                       !- Do Plant Sizing Calculation
  No;                                     !- Run Simulation for Sizing Periods

OS:Timestep,
  {62f8c3e2-7279-410c-941f-3bcb5d60eeac}, !- Handle
  1;                                      !- Number of Timesteps per Hour

OS:ShadowCalculation,
  {eb1b7644-1889-4d7e-98d8-45fc467eb18b}, !- Handle
  PolygonClipping,                        !- Shading Calculation Method
  ,                                       !- Shading Calculation Update Frequency Method
  20,                                     !- Shading Calculation Update Frequency
  200,                                    !- Maximum Figures in Shadow Overlap Calculations
  ,                                       !- Polygon Clipping Algorithm
  512,                                    !- Pixel Counting Resolution
  ,                                       !- Sky Diffuse Modeling Algorithm
  No,                                     !- Output External Shading Calculation Results
  No,                                     !- Disable Self-Shading Within Shading Zone Groups
  No;                                     !- Disable Self-Shading From Shading Zone Groups to Other Zones

OS:SurfaceConvectionAlgorithm:Outside,
  {caef020c-f61d-4a81-bc2b-0fddbbb12340}, !- Handle
  DOE-2;                                  !- Algorithm

OS:SurfaceConvectionAlgorithm:Inside,
  {00e56b11-34b0-4b7b-bfc1-2b9efa925b4c}, !- Handle
  TARP;                                   !- Algorithm

OS:ZoneCapacitanceMultiplier:ResearchSpecial,
  {20193ec1-f365-4e29-b181-ac8d1f44a12b}, !- Handle
  7,                                      !- Temperature Capacity Multiplier
  15,                                     !- Humidity Capacity Multiplier
  ;                                       !- Carbon Dioxide Capacity Multiplier

OS:ConvergenceLimits,
  {0e55d895-b275-4684-85db-d07dbc75c737}, !- Handle
  0;                                      !- Minimum System Timestep {minutes}

OS:RunPeriod,
  {44e53a54-2347-4b03-9f68-52c1351ed718}, !- Handle
  Run Period 1,                           !- Name
  1,                                      !- Begin Month
  1,                                      !- Begin Day of Month
  12,                                     !- End Month
  31,                                     !- End Day of Month
  ,                                       !- Use Weather File Holidays and Special Days
  ,                                       !- Use Weather File Daylight Saving Period
  ,                                       !- Apply Weekend Holiday Rule
  ,                                       !- Use Weather File Rain Indicators
  ,                                       !- Use Weather File Snow Indicators
  ;                                       !- Number of Times Runperiod to be Repeated

OS:PerformancePrecisionTradeoffs,
  {069359e9-fd48-4438-a5fa-e11538ef260a}, !- Handle
  ,                                       !- Use Coil Direct Solutions
  CarrollMRT;                             !- Zone Radiant Exchange Algorithm

OS:WeatherFile,
  {ceb8c1fe-56d4-489d-9530-8eeb2698dcc1}, !- Handle
  Buffalo Niagara Intl Ap,                !- City
  NY,                                     !- State Province Region
  USA,                                    !- Country
  TMY3,                                   !- Data Source
  725280,                                 !- WMO Number
  42.93,                                  !- Latitude {deg}
  -78.73,                                 !- Longitude {deg}
  -5,                                     !- Time Zone {hr}
  215,                                    !- Elevation {m}
  /Users/nmoore/github/urbanopt-example-geojson-project/example_project/weather/USA_NY_Buffalo-Greater.Buffalo.Intl.AP.725280_TMY3.epw, !- Url
  6B50E0FF,                               !- Checksum
  ,                                       !- Start Date Actual Year
  Sunday;                                 !- Start Day of Week

OS:YearDescription,
  {4e0ca341-754f-4b56-a084-66ca79ce2ef0}, !- Handle
  2007,                                   !- Calendar Year
  ,                                       !- Day of Week for Start Day
  ;                                       !- Is Leap Year

OS:Site,
  {ca669bee-eaad-4bdb-8ef7-2724a9df507f}, !- Handle
  Buffalo Niagara Intl Ap_NY,             !- Name
  42.93,                                  !- Latitude {deg}
  -78.73,                                 !- Longitude {deg}
  -5,                                     !- Time Zone {hr}
  215,                                    !- Elevation {m}
  Suburbs,                                !- Terrain
  Yes;                                    !- Keep Site Location Information

OS:RunPeriodControl:DaylightSavingTime,
  {d18958d8-4ca8-41a1-95d9-e975db297cca}, !- Handle
  Mar 12,                                 !- Start Date
  Nov 5;                                  !- End Date

OS:Site:GroundTemperature:Shallow,
  {ef29759e-6630-4fa8-98d1-cc6911504bfd}, !- Handle
  4.30207395723828,                       !- January Surface Ground Temperature {C}
  2.29327249652502,                       !- February Surface Ground Temperature {C}
  2.13240047156047,                       !- March Surface Ground Temperature {C}
  3.08567940719286,                       !- April Surface Ground Temperature {C}
  6.91256312497526,                       !- May Surface Ground Temperature {C}
  10.7216195949507,                       !- June Surface Ground Temperature {C}
  14.0238679822574,                       !- July Surface Ground Temperature {C}
  16.1157611184724,                       !- August Surface Ground Temperature {C}
  16.2934789303462,                       !- September Surface Ground Temperature {C}
  14.5920754632847,                       !- October Surface Ground Temperature {C}
  11.374036348653,                        !- November Surface Ground Temperature {C}
  7.68182621661674;                       !- December Surface Ground Temperature {C}

OS:ThermalZone,
  {7a9d7635-c7dc-416e-9a7b-9b5e842545a7}, !- Handle
  conditioned space,                      !- Name
  1,                                      !- Multiplier
  ,                                       !- Ceiling Height {m}
  692.06373070848,                        !- Volume {m3}
  ,                                       !- Floor Area {m2}
  ,                                       !- Zone Inside Convection Algorithm
  ,                                       !- Zone Outside Convection Algorithm
  ,                                       !- Zone Conditioning Equipment List Name
  {da0941e5-d565-4362-9ce9-80b0a2783b9e}, !- Zone Air Inlet Port List
  {31203af7-76d6-4f79-bb11-e1ca478820dd}, !- Zone Air Exhaust Port List
  {a0120760-b47a-4eb9-b007-81443c9e5ee0}, !- Zone Air Node Name
  {38b3764e-0499-4cd2-a419-3df254522e3a}, !- Zone Return Air Port List
  ,                                       !- Primary Daylighting Control Name
  ,                                       !- Fraction of Zone Controlled by Primary Daylighting Control
  ,                                       !- Secondary Daylighting Control Name
  ,                                       !- Fraction of Zone Controlled by Secondary Daylighting Control
  ,                                       !- Illuminance Map Name
  ,                                       !- Group Rendering Name
  {0bf11999-89fb-4b43-ac04-fd9853da3e64}, !- Thermostat Name
  No;                                     !- Use Ideal Air Loads

OS:Node,
  {9eac2f6f-ac2c-4fc4-aea9-e944e76e8856}, !- Handle
  Node 1,                                 !- Name
  {a0120760-b47a-4eb9-b007-81443c9e5ee0}, !- Inlet Port
  ;                                       !- Outlet Port

OS:Connection,
  {a0120760-b47a-4eb9-b007-81443c9e5ee0}, !- Handle
  {7a9d7635-c7dc-416e-9a7b-9b5e842545a7}, !- Source Object
  11,                                     !- Outlet Port
  {9eac2f6f-ac2c-4fc4-aea9-e944e76e8856}, !- Target Object
  2;                                      !- Inlet Port

OS:PortList,
  {da0941e5-d565-4362-9ce9-80b0a2783b9e}, !- Handle
  {7a9d7635-c7dc-416e-9a7b-9b5e842545a7}, !- HVAC Component
  {770f509c-bce6-4348-9ba3-93d62b449ae9}; !- Port 1

OS:PortList,
  {31203af7-76d6-4f79-bb11-e1ca478820dd}, !- Handle
  {7a9d7635-c7dc-416e-9a7b-9b5e842545a7}; !- HVAC Component

OS:PortList,
  {38b3764e-0499-4cd2-a419-3df254522e3a}, !- Handle
  {7a9d7635-c7dc-416e-9a7b-9b5e842545a7}, !- HVAC Component
  {422cca21-975b-497c-a651-c5fcae38dd01}; !- Port 1

OS:Sizing:Zone,
  {d8d9d7ae-d9ca-4e8c-84ca-e7369dd326b1}, !- Handle
  {7a9d7635-c7dc-416e-9a7b-9b5e842545a7}, !- Zone or ZoneList Name
  SupplyAirTemperature,                   !- Zone Cooling Design Supply Air Temperature Input Method
  14,                                     !- Zone Cooling Design Supply Air Temperature {C}
  11.11,                                  !- Zone Cooling Design Supply Air Temperature Difference {deltaC}
  SupplyAirTemperature,                   !- Zone Heating Design Supply Air Temperature Input Method
  40,                                     !- Zone Heating Design Supply Air Temperature {C}
  11.11,                                  !- Zone Heating Design Supply Air Temperature Difference {deltaC}
  0.0085,                                 !- Zone Cooling Design Supply Air Humidity Ratio {kg-H2O/kg-air}
  0.008,                                  !- Zone Heating Design Supply Air Humidity Ratio {kg-H2O/kg-air}
  ,                                       !- Zone Heating Sizing Factor
  ,                                       !- Zone Cooling Sizing Factor
  DesignDay,                              !- Cooling Design Air Flow Method
  ,                                       !- Cooling Design Air Flow Rate {m3/s}
  ,                                       !- Cooling Minimum Air Flow per Zone Floor Area {m3/s-m2}
  ,                                       !- Cooling Minimum Air Flow {m3/s}
  ,                                       !- Cooling Minimum Air Flow Fraction
  DesignDay,                              !- Heating Design Air Flow Method
  ,                                       !- Heating Design Air Flow Rate {m3/s}
  ,                                       !- Heating Maximum Air Flow per Zone Floor Area {m3/s-m2}
  ,                                       !- Heating Maximum Air Flow {m3/s}
  ,                                       !- Heating Maximum Air Flow Fraction
  No,                                     !- Account for Dedicated Outdoor Air System
  NeutralSupplyAir,                       !- Dedicated Outdoor Air System Control Strategy
  autosize,                               !- Dedicated Outdoor Air Low Setpoint Temperature for Design {C}
  autosize,                               !- Dedicated Outdoor Air High Setpoint Temperature for Design {C}
  Sensible Load Only No Latent Load,      !- Zone Load Sizing Method
  HumidityRatioDifference,                !- Zone Latent Cooling Design Supply Air Humidity Ratio Input Method
  ,                                       !- Zone Dehumidification Design Supply Air Humidity Ratio {kgWater/kgDryAir}
  0.005,                                  !- Zone Cooling Design Supply Air Humidity Ratio Difference {kgWater/kgDryAir}
  HumidityRatioDifference,                !- Zone Latent Heating Design Supply Air Humidity Ratio Input Method
  ,                                       !- Zone Humidification Design Supply Air Humidity Ratio {kgWater/kgDryAir}
  0.005,                                  !- Zone Humidification Design Supply Air Humidity Ratio Difference {kgWater/kgDryAir}
  ,                                       !- Zone Humidistat Dehumidification Set Point Schedule Name
  ,                                       !- Zone Humidistat Humidification Set Point Schedule Name
  ,                                       !- Design Zone Air Distribution Effectiveness in Cooling Mode
  ,                                       !- Design Zone Air Distribution Effectiveness in Heating Mode
  ,                                       !- Design Zone Secondary Recirculation Fraction {dimensionless}
  ,                                       !- Design Minimum Zone Ventilation Efficiency {dimensionless}
  Coincident;                             !- Sizing Option

OS:ZoneHVAC:EquipmentList,
  {5572dbf8-5b2b-4169-8eb2-2f3efd98f152}, !- Handle
  Zone HVAC Equipment List 1,             !- Name
  {7a9d7635-c7dc-416e-9a7b-9b5e842545a7}, !- Thermal Zone
  ,                                       !- Load Distribution Scheme
  {ef0e3347-734d-4e62-a45a-1731c5b07288}, !- Zone Equipment 1
  1,                                      !- Zone Equipment Cooling Sequence 1
  1,                                      !- Zone Equipment Heating or No-Load Sequence 1
  {f1e1a749-0013-4590-8b11-0a4b2e7d6758}, !- Zone Equipment Sequential Cooling Fraction Schedule Name 1
  {9da9e2a5-91d9-4702-a7e3-7e33db8d958a}; !- Zone Equipment Sequential Heating Fraction Schedule Name 1

OS:AdditionalProperties,
  {d7eae12c-71c6-48ba-b902-9053fcb45512}, !- Handle
  {7a9d7635-c7dc-416e-9a7b-9b5e842545a7}, !- Object Name
  ObjectType,                             !- Feature Name 1
  String,                                 !- Feature Data Type 1
  conditioned space;                      !- Feature Value 1

OS:Space,
  {9d04c726-7209-4cd9-86ac-85bdfd00f704}, !- Handle
  conditioned space 1,                    !- Name
  ,                                       !- Space Type Name
  ,                                       !- Default Construction Set Name
  ,                                       !- Default Schedule Set Name
  ,                                       !- Direction of Relative North {deg}
  ,                                       !- X Origin {m}
  ,                                       !- Y Origin {m}
  ,                                       !- Z Origin {m}
  ,                                       !- Building Story Name
  {7a9d7635-c7dc-416e-9a7b-9b5e842545a7}, !- Thermal Zone Name
  ,                                       !- Part of Total Floor Area
  ,                                       !- Design Specification Outdoor Air Object Name
  ,                                       !- Building Unit Name
  692.06373070848;                        !- Volume {m3}

OS:Schedule:Ruleset,
  {850acd3f-766c-4cea-9a16-de4381e39463}, !- Handle
  heating setpoint,                       !- Name
  {32e56c69-ef0a-47ff-8b5f-cc158cdeeba0}, !- Schedule Type Limits Name
  {6db45b2b-15f7-4914-bd1f-7e8054fccad8}; !- Default Day Schedule Name

OS:Schedule:Day,
  {6db45b2b-15f7-4914-bd1f-7e8054fccad8}, !- Handle
  heating setpoint default day,           !- Name
  {32e56c69-ef0a-47ff-8b5f-cc158cdeeba0}, !- Schedule Type Limits Name
  ,                                       !- Interpolate to Timestep
  24,                                     !- Hour 1
  0,                                      !- Minute 1
  0;                                      !- Value Until Time 1

OS:Schedule:Rule,
  {42ab6b9d-d086-4bb0-8613-aeeefa09e976}, !- Handle
  heating setpoint allday rule,           !- Name
  {850acd3f-766c-4cea-9a16-de4381e39463}, !- Schedule Ruleset Name
  0,                                      !- Rule Order
  {3f4d7033-f1e6-4c8e-990e-f0f8d587fd7b}, !- Day Schedule Name
  Yes,                                    !- Apply Sunday
  Yes,                                    !- Apply Monday
  Yes,                                    !- Apply Tuesday
  Yes,                                    !- Apply Wednesday
  Yes,                                    !- Apply Thursday
  Yes,                                    !- Apply Friday
  Yes,                                    !- Apply Saturday
  DateRange,                              !- Date Specification Type
  1,                                      !- Start Month
  1,                                      !- Start Day
  12,                                     !- End Month
  31;                                     !- End Day

OS:Schedule:Day,
  {3f4d7033-f1e6-4c8e-990e-f0f8d587fd7b}, !- Handle
  heating setpoint day,                   !- Name
  {32e56c69-ef0a-47ff-8b5f-cc158cdeeba0}, !- Schedule Type Limits Name
  ,                                       !- Interpolate to Timestep
  24,                                     !- Hour 1
  0,                                      !- Minute 1
  20;                                     !- Value Until Time 1

OS:Schedule:Ruleset,
  {52097100-ee1d-4eb6-ba8a-73cdf7a2b30c}, !- Handle
  cooling setpoint,                       !- Name
  {32e56c69-ef0a-47ff-8b5f-cc158cdeeba0}, !- Schedule Type Limits Name
  {fea88680-1d2a-4f97-9ed7-edb070861e28}; !- Default Day Schedule Name

OS:Schedule:Day,
  {fea88680-1d2a-4f97-9ed7-edb070861e28}, !- Handle
  cooling setpoint default day,           !- Name
  {32e56c69-ef0a-47ff-8b5f-cc158cdeeba0}, !- Schedule Type Limits Name
  ,                                       !- Interpolate to Timestep
  24,                                     !- Hour 1
  0,                                      !- Minute 1
  0;                                      !- Value Until Time 1

OS:Schedule:Rule,
  {1da1deae-21f4-42e5-a6df-462bc96925fb}, !- Handle
  cooling setpoint allday rule,           !- Name
  {52097100-ee1d-4eb6-ba8a-73cdf7a2b30c}, !- Schedule Ruleset Name
  0,                                      !- Rule Order
  {2e439d2d-d997-4aba-9aec-47c9f85d8b4d}, !- Day Schedule Name
  Yes,                                    !- Apply Sunday
  Yes,                                    !- Apply Monday
  Yes,                                    !- Apply Tuesday
  Yes,                                    !- Apply Wednesday
  Yes,                                    !- Apply Thursday
  Yes,                                    !- Apply Friday
  Yes,                                    !- Apply Saturday
  DateRange,                              !- Date Specification Type
  1,                                      !- Start Month
  1,                                      !- Start Day
  12,                                     !- End Month
  31;                                     !- End Day

OS:Schedule:Day,
  {2e439d2d-d997-4aba-9aec-47c9f85d8b4d}, !- Handle
  cooling setpoint day,                   !- Name
  {32e56c69-ef0a-47ff-8b5f-cc158cdeeba0}, !- Schedule Type Limits Name
  ,                                       !- Interpolate to Timestep
  24,                                     !- Hour 1
  0,                                      !- Minute 1
  25.5555555555556;                       !- Value Until Time 1

OS:ThermostatSetpoint:DualSetpoint,
  {0bf11999-89fb-4b43-ac04-fd9853da3e64}, !- Handle
  conditioned space temperature setpoint, !- Name
  {850acd3f-766c-4cea-9a16-de4381e39463}, !- Heating Setpoint Temperature Schedule Name
  {52097100-ee1d-4eb6-ba8a-73cdf7a2b30c}, !- Cooling Setpoint Temperature Schedule Name
  0;                                      !- Temperature Difference Between Cutout And Setpoint {deltaC}

OS:ScheduleTypeLimits,
  {32e56c69-ef0a-47ff-8b5f-cc158cdeeba0}, !- Handle
  Temperature,                            !- Name
  ,                                       !- Lower Limit Value
  ,                                       !- Upper Limit Value
  Continuous,                             !- Numeric Type
  Temperature;                            !- Unit Type

OS:Surface,
  {e1bc3c0b-d6f3-4eca-bd08-fe86caf322f1}, !- Handle
  Roof1,                                  !- Name
  RoofCeiling,                            !- Surface Type
  {09ce6c59-7db9-444e-ac7e-ca5316249209}, !- Construction Name
  {58ebf3be-4105-40ca-ae6c-f660564690c0}, !- Space Name
  Outdoors,                               !- Outside Boundary Condition
  ,                                       !- Outside Boundary Condition Object
  SunExposed,                             !- Sun Exposure
  WindExposed,                            !- Wind Exposure
  ,                                       !- View Factor to Ground
  ,                                       !- Number of Vertices
  -18.7742033914137, 41.5974007452599, 2.4384, !- X,Y,Z Vertex 1 {m}
  -18.7742033914137, 33.6309759081827, 6.42161241853859, !- X,Y,Z Vertex 2 {m}
  -9.86746965474012, 33.6309759081827, 6.42161241853859, !- X,Y,Z Vertex 3 {m}
  -9.86746965474012, 41.5974007452599, 2.4384; !- X,Y,Z Vertex 4 {m}

OS:AdditionalProperties,
  {302516d9-3481-4f7b-8a05-a5d89291d517}, !- Handle
  {e1bc3c0b-d6f3-4eca-bd08-fe86caf322f1}, !- Object Name
  Length,                                 !- Feature Name 1
  Double,                                 !- Feature Data Type 1
  29.221567377538118,                     !- Feature Value 1
  Width,                                  !- Feature Name 2
  Double,                                 !- Feature Data Type 2
  29.221567377538118,                     !- Feature Value 2
  Azimuth,                                !- Feature Name 3
  Integer,                                !- Feature Data Type 3
  0,                                      !- Feature Value 3
  Tilt,                                   !- Feature Name 4
  Double,                                 !- Feature Data Type 4
  0.5,                                    !- Feature Value 4
  SurfaceType,                            !- Feature Name 5
  String,                                 !- Feature Data Type 5
  Roof;                                   !- Feature Value 5

OS:ThermalZone,
  {b8c24855-0f0c-4222-92c2-8c9d1857b13b}, !- Handle
  attic - vented,                         !- Name
  1,                                      !- Multiplier
  ,                                       !- Ceiling Height {m}
  126.003218814318,                       !- Volume {m3}
  ,                                       !- Floor Area {m2}
  ,                                       !- Zone Inside Convection Algorithm
  ,                                       !- Zone Outside Convection Algorithm
  ,                                       !- Zone Conditioning Equipment List Name
  {0ed192ec-9512-46a1-9975-3b2b0c684ab4}, !- Zone Air Inlet Port List
  {306202f9-9b29-4860-be89-f367a216f041}, !- Zone Air Exhaust Port List
  {a0d28079-9ff8-40ae-8602-9e8871d43afe}, !- Zone Air Node Name
  {49685251-6b89-4a40-9f7e-921634ab83f4}, !- Zone Return Air Port List
  ,                                       !- Primary Daylighting Control Name
  ,                                       !- Fraction of Zone Controlled by Primary Daylighting Control
  ,                                       !- Secondary Daylighting Control Name
  ,                                       !- Fraction of Zone Controlled by Secondary Daylighting Control
  ,                                       !- Illuminance Map Name
  ,                                       !- Group Rendering Name
  ,                                       !- Thermostat Name
  No;                                     !- Use Ideal Air Loads

OS:Node,
  {e7450cf4-3914-4773-ad77-ebfc991dc7ff}, !- Handle
  Node 2,                                 !- Name
  {a0d28079-9ff8-40ae-8602-9e8871d43afe}, !- Inlet Port
  ;                                       !- Outlet Port

OS:Connection,
  {a0d28079-9ff8-40ae-8602-9e8871d43afe}, !- Handle
  {b8c24855-0f0c-4222-92c2-8c9d1857b13b}, !- Source Object
  11,                                     !- Outlet Port
  {e7450cf4-3914-4773-ad77-ebfc991dc7ff}, !- Target Object
  2;                                      !- Inlet Port

OS:PortList,
  {0ed192ec-9512-46a1-9975-3b2b0c684ab4}, !- Handle
  {b8c24855-0f0c-4222-92c2-8c9d1857b13b}; !- HVAC Component

OS:PortList,
  {306202f9-9b29-4860-be89-f367a216f041}, !- Handle
  {b8c24855-0f0c-4222-92c2-8c9d1857b13b}; !- HVAC Component

OS:PortList,
  {49685251-6b89-4a40-9f7e-921634ab83f4}, !- Handle
  {b8c24855-0f0c-4222-92c2-8c9d1857b13b}; !- HVAC Component

OS:Sizing:Zone,
  {91d1b9bc-1998-43b5-8cf4-145b11353eae}, !- Handle
  {b8c24855-0f0c-4222-92c2-8c9d1857b13b}, !- Zone or ZoneList Name
  SupplyAirTemperature,                   !- Zone Cooling Design Supply Air Temperature Input Method
  14,                                     !- Zone Cooling Design Supply Air Temperature {C}
  11.11,                                  !- Zone Cooling Design Supply Air Temperature Difference {deltaC}
  SupplyAirTemperature,                   !- Zone Heating Design Supply Air Temperature Input Method
  40,                                     !- Zone Heating Design Supply Air Temperature {C}
  11.11,                                  !- Zone Heating Design Supply Air Temperature Difference {deltaC}
  0.0085,                                 !- Zone Cooling Design Supply Air Humidity Ratio {kg-H2O/kg-air}
  0.008,                                  !- Zone Heating Design Supply Air Humidity Ratio {kg-H2O/kg-air}
  ,                                       !- Zone Heating Sizing Factor
  ,                                       !- Zone Cooling Sizing Factor
  DesignDay,                              !- Cooling Design Air Flow Method
  ,                                       !- Cooling Design Air Flow Rate {m3/s}
  ,                                       !- Cooling Minimum Air Flow per Zone Floor Area {m3/s-m2}
  ,                                       !- Cooling Minimum Air Flow {m3/s}
  ,                                       !- Cooling Minimum Air Flow Fraction
  DesignDay,                              !- Heating Design Air Flow Method
  ,                                       !- Heating Design Air Flow Rate {m3/s}
  ,                                       !- Heating Maximum Air Flow per Zone Floor Area {m3/s-m2}
  ,                                       !- Heating Maximum Air Flow {m3/s}
  ,                                       !- Heating Maximum Air Flow Fraction
  No,                                     !- Account for Dedicated Outdoor Air System
  NeutralSupplyAir,                       !- Dedicated Outdoor Air System Control Strategy
  autosize,                               !- Dedicated Outdoor Air Low Setpoint Temperature for Design {C}
  autosize,                               !- Dedicated Outdoor Air High Setpoint Temperature for Design {C}
  Sensible Load Only No Latent Load,      !- Zone Load Sizing Method
  HumidityRatioDifference,                !- Zone Latent Cooling Design Supply Air Humidity Ratio Input Method
  ,                                       !- Zone Dehumidification Design Supply Air Humidity Ratio {kgWater/kgDryAir}
  0.005,                                  !- Zone Cooling Design Supply Air Humidity Ratio Difference {kgWater/kgDryAir}
  HumidityRatioDifference,                !- Zone Latent Heating Design Supply Air Humidity Ratio Input Method
  ,                                       !- Zone Humidification Design Supply Air Humidity Ratio {kgWater/kgDryAir}
  0.005,                                  !- Zone Humidification Design Supply Air Humidity Ratio Difference {kgWater/kgDryAir}
  ,                                       !- Zone Humidistat Dehumidification Set Point Schedule Name
  ,                                       !- Zone Humidistat Humidification Set Point Schedule Name
  ,                                       !- Design Zone Air Distribution Effectiveness in Cooling Mode
  ,                                       !- Design Zone Air Distribution Effectiveness in Heating Mode
  ,                                       !- Design Zone Secondary Recirculation Fraction {dimensionless}
  ,                                       !- Design Minimum Zone Ventilation Efficiency {dimensionless}
  Coincident;                             !- Sizing Option

OS:ZoneHVAC:EquipmentList,
  {e6b9b01f-99e5-440f-a58f-a9805c26ae31}, !- Handle
  Zone HVAC Equipment List 2,             !- Name
  {b8c24855-0f0c-4222-92c2-8c9d1857b13b}; !- Thermal Zone

OS:AdditionalProperties,
  {cf51c5ec-4424-4324-ad6f-8d64561e2056}, !- Handle
  {b8c24855-0f0c-4222-92c2-8c9d1857b13b}, !- Object Name
  ObjectType,                             !- Feature Name 1
  String,                                 !- Feature Data Type 1
  attic - vented;                         !- Feature Value 1

OS:Space,
  {58ebf3be-4105-40ca-ae6c-f660564690c0}, !- Handle
  attic - vented 1,                       !- Name
  ,                                       !- Space Type Name
  ,                                       !- Default Construction Set Name
  ,                                       !- Default Schedule Set Name
  ,                                       !- Direction of Relative North {deg}
  ,                                       !- X Origin {m}
  ,                                       !- Y Origin {m}
  ,                                       !- Z Origin {m}
  ,                                       !- Building Story Name
  {b8c24855-0f0c-4222-92c2-8c9d1857b13b}, !- Thermal Zone Name
  ,                                       !- Part of Total Floor Area
  ,                                       !- Design Specification Outdoor Air Object Name
  ,                                       !- Building Unit Name
  126.003218814318;                       !- Volume {m3}

OS:Material,
  {3b2da854-562b-4c08-894d-96a6a558f62d}, !- Handle
  asphalt or fiberglass shingles,         !- Name
  Rough,                                  !- Roughness
  0.00635,                                !- Thickness {m}
  0.162714,                               !- Conductivity {W/m-K}
  1121.4,                                 !- Density {kg/m3}
  1465.45,                                !- Specific Heat {J/kg-K}
  0.9,                                    !- Thermal Absorptance
  0.85,                                   !- Solar Absorptance