
OS:Version,
  {0093013a-0dd9-4f38-9e74-1f50c0b99d57}, !- Handle
  3.10.0;                                 !- Version Identifier

OS:SimulationControl,
  {5fc3800d-7f36-4ad0-8122-1c350682bbaf}, !- Handle
  ,                                       !- Do Zone Sizing Calculation
  ,                                       !- Do System Sizing Calculation
  ,                                       !- Do Plant Sizing Calculation
  No;                                     !- Run Simulation for Sizing Periods

OS:Timestep,
  {c90ab2cf-904b-4bb2-bfaa-37dff047afd4}, !- Handle
  1;                                      !- Number of Timesteps per Hour

OS:ShadowCalculation,
  {91459959-c006-48aa-b9e1-bb23d9109a42}, !- Handle
  PolygonClipping,                        !- Shading Calculation Method
  ,                                       !- Shading Calculation Update Frequency Method
  20,                                     !- Shading Calculation Update Frequency
  200,                                    !- Maximum Figures in Shadow Overlap Calculations
  ,                                       !- Polygon Clipping Algorithm
  512,                                    !- Pixel Counting Resolution
  ,                                       !- Sky Diffuse Modeling Algorithm
  No,                                     !- Output External Shading Calculation Results
  No,                                     !- Disable Self-Shading Within Shading Zone Groups
  No;                                     !- Disable Self-Shading From Shading Zone Groups to Other Zones

OS:SurfaceConvectionAlgorithm:Outside,
  {c99da572-6fcf-46d1-a546-aaf25690836d}, !- Handle
  DOE-2;                                  !- Algorithm

OS:SurfaceConvectionAlgorithm:Inside,
  {033dd89a-3b4b-476b-b1d2-f0ab9897bc25}, !- Handle
  TARP;                                   !- Algorithm

OS:ZoneCapacitanceMultiplier:ResearchSpecial,
  {6e9e8fe6-83d6-4a66-90ff-b73feb8a7702}, !- Handle
  7,                                      !- Temperature Capacity Multiplier
  15,                                     !- Humidity Capacity Multiplier
  ;                                       !- Carbon Dioxide Capacity Multiplier

OS:ConvergenceLimits,
  {6d7c66aa-4efb-41fc-931b-4503ba09d273}, !- Handle
  0;                                      !- Minimum System Timestep {minutes}

OS:RunPeriod,
  {aaa317d3-dca7-4631-9bb5-37c1ebd8390f}, !- Handle
  Run Period 1,                           !- Name
  1,                                      !- Begin Month
  1,                                      !- Begin Day of Month
  12,                                     !- End Month
  31,                                     !- End Day of Month
  ,                                       !- Use Weather File Holidays and Special Days
  ,                                       !- Use Weather File Daylight Saving Period
  ,                                       !- Apply Weekend Holiday Rule
  ,                                       !- Use Weather File Rain Indicators
  ,                                       !- Use Weather File Snow Indicators
  ;                                       !- Number of Times Runperiod to be Repeated

OS:PerformancePrecisionTradeoffs,
  {de92befd-5649-475f-a81e-da214d3cc2bc}, !- Handle
  ,                                       !- Use Coil Direct Solutions
  CarrollMRT;                             !- Zone Radiant Exchange Algorithm

OS:WeatherFile,
  {f44d8802-7aeb-4290-b0c8-c1620294e171}, !- Handle
  Buffalo Niagara Intl Ap,                !- City
  NY,                                     !- State Province Region
  USA,                                    !- Country
  TMY3,                                   !- Data Source
  725280,                                 !- WMO Number
  42.93,                                  !- Latitude {deg}
  -78.73,                                 !- Longitude {deg}
  -5,                                     !- Time Zone {hr}
  215,                                    !- Elevation {m}
  /Users/nmoore/github/urbanopt-example-geojson-project/example_project/weather/USA_NY_Buffalo-Greater.Buffalo.Intl.AP.725280_TMY3.epw, !- Url
  6B50E0FF,                               !- Checksum
  ,                                       !- Start Date Actual Year
  Sunday;                                 !- Start Day of Week

OS:YearDescription,
  {c88160b1-2310-4c94-beca-a1f63187ef72}, !- Handle
  2007,                                   !- Calendar Year
  ,                                       !- Day of Week for Start Day
  ;                                       !- Is Leap Year

OS:Site,
  {41f9b350-de40-496a-9e27-07975b9592bf}, !- Handle
  Buffalo Niagara Intl Ap_NY,             !- Name
  42.93,                                  !- Latitude {deg}
  -78.73,                                 !- Longitude {deg}
  -5,                                     !- Time Zone {hr}
  215,                                    !- Elevation {m}
  Suburbs,                                !- Terrain
  Yes;                                    !- Keep Site Location Information

OS:RunPeriodControl:DaylightSavingTime,
  {6e1e20df-b490-440a-b786-1e58dd146c5a}, !- Handle
  Mar 12,                                 !- Start Date
  Nov 5;                                  !- End Date

OS:Site:GroundTemperature:Shallow,
  {1b7dbd0d-8313-42d3-8d21-a7fbf1cdd1e5}, !- Handle
  4.30207395723828,                       !- January Surface Ground Temperature {C}
  2.29327249652502,                       !- February Surface Ground Temperature {C}
  2.13240047156047,                       !- March Surface Ground Temperature {C}
  3.08567940719286,                       !- April Surface Ground Temperature {C}
  6.91256312497526,                       !- May Surface Ground Temperature {C}
  10.7216195949507,                       !- June Surface Ground Temperature {C}
  14.0238679822574,                       !- July Surface Ground Temperature {C}
  16.1157611184724,                       !- August Surface Ground Temperature {C}
  16.2934789303462,                       !- September Surface Ground Temperature {C}
  14.5920754632847,                       !- October Surface Ground Temperature {C}
  11.374036348653,                        !- November Surface Ground Temperature {C}
  7.68182621661674;                       !- December Surface Ground Temperature {C}

OS:ThermalZone,
  {e7d10837-81ce-4dfb-b317-ea190301546d}, !- Handle
  conditioned space,                      !- Name
  1,                                      !- Multiplier
  ,                                       !- Ceiling Height {m}
  346.03186535424,                        !- Volume {m3}
  ,                                       !- Floor Area {m2}
  ,                                       !- Zone Inside Convection Algorithm
  ,                                       !- Zone Outside Convection Algorithm
  ,                                       !- Zone Conditioning Equipment List Name
  {92d54426-f5cf-43fc-b935-7f59e39c5c59}, !- Zone Air Inlet Port List
  {f5bb35f3-cf7d-42d2-97ab-b6813f3cafea}, !- Zone Air Exhaust Port List
  {0ce00f54-bdd5-4e6e-991e-ea4d7c2c3cee}, !- Zone Air Node Name
  {4cea3085-596d-46e5-8c78-b455683369db}, !- Zone Return Air Port List
  ,                                       !- Primary Daylighting Control Name
  ,                                       !- Fraction of Zone Controlled by Primary Daylighting Control
  ,                                       !- Secondary Daylighting Control Name
  ,                                       !- Fraction of Zone Controlled by Secondary Daylighting Control
  ,                                       !- Illuminance Map Name
  ,                                       !- Group Rendering Name
  {515e39db-8407-4eb9-ba2b-912765ad78e7}, !- Thermostat Name
  No;                                     !- Use Ideal Air Loads

OS:Node,
  {84ddf8c5-72ae-4996-ada2-a7dcbfc69350}, !- Handle
  Node 1,                                 !- Name
  {0ce00f54-bdd5-4e6e-991e-ea4d7c2c3cee}, !- Inlet Port
  ;                                       !- Outlet Port

OS:Connection,
  {0ce00f54-bdd5-4e6e-991e-ea4d7c2c3cee}, !- Handle
  {e7d10837-81ce-4dfb-b317-ea190301546d}, !- Source Object
  11,                                     !- Outlet Port
  {84ddf8c5-72ae-4996-ada2-a7dcbfc69350}, !- Target Object
  2;                                      !- Inlet Port

OS:PortList,
  {92d54426-f5cf-43fc-b935-7f59e39c5c59}, !- Handle
  {e7d10837-81ce-4dfb-b317-ea190301546d}, !- HVAC Component
  {6a968067-8c7b-4187-995b-dced36e6e92a}; !- Port 1

OS:PortList,
  {f5bb35f3-cf7d-42d2-97ab-b6813f3cafea}, !- Handle
  {e7d10837-81ce-4dfb-b317-ea190301546d}; !- HVAC Component

OS:PortList,
  {4cea3085-596d-46e5-8c78-b455683369db}, !- Handle
  {e7d10837-81ce-4dfb-b317-ea190301546d}, !- HVAC Component
  {b060188f-3b5a-4535-86eb-3a81b9ef67f8}; !- Port 1

OS:Sizing:Zone,
  {c789e09c-7805-44fa-8984-584ca20704c4}, !- Handle
  {e7d10837-81ce-4dfb-b317-ea190301546d}, !- Zone or ZoneList Name
  SupplyAirTemperature,                   !- Zone Cooling Design Supply Air Temperature Input Method
  14,                                     !- Zone Cooling Design Supply Air Temperature {C}
  11.11,                                  !- Zone Cooling Design Supply Air Temperature Difference {deltaC}
  SupplyAirTemperature,                   !- Zone Heating Design Supply Air Temperature Input Method
  40,                                     !- Zone Heating Design Supply Air Temperature {C}
  11.11,                                  !- Zone Heating Design Supply Air Temperature Difference {deltaC}
  0.0085,                                 !- Zone Cooling Design Supply Air Humidity Ratio {kg-H2O/kg-air}
  0.008,                                  !- Zone Heating Design Supply Air Humidity Ratio {kg-H2O/kg-air}
  ,                                       !- Zone Heating Sizing Factor
  ,                                       !- Zone Cooling Sizing Factor
  DesignDay,                              !- Cooling Design Air Flow Method
  ,                                       !- Cooling Design Air Flow Rate {m3/s}
  ,                                       !- Cooling Minimum Air Flow per Zone Floor Area {m3/s-m2}
  ,                                       !- Cooling Minimum Air Flow {m3/s}
  ,                                       !- Cooling Minimum Air Flow Fraction
  DesignDay,                              !- Heating Design Air Flow Method
  ,                                       !- Heating Design Air Flow Rate {m3/s}
  ,                                       !- Heating Maximum Air Flow per Zone Floor Area {m3/s-m2}
  ,                                       !- Heating Maximum Air Flow {m3/s}
  ,                                       !- Heating Maximum Air Flow Fraction
  No,                                     !- Account for Dedicated Outdoor Air System
  NeutralSupplyAir,                       !- Dedicated Outdoor Air System Control Strategy
  autosize,                               !- Dedicated Outdoor Air Low Setpoint Temperature for Design {C}
  autosize,                               !- Dedicated Outdoor Air High Setpoint Temperature for Design {C}
  Sensible Load Only No Latent Load,      !- Zone Load Sizing Method
  HumidityRatioDifference,                !- Zone Latent Cooling Design Supply Air Humidity Ratio Input Method
  ,                                       !- Zone Dehumidification Design Supply Air Humidity Ratio {kgWater/kgDryAir}
  0.005,                                  !- Zone Cooling Design Supply Air Humidity Ratio Difference {kgWater/kgDryAir}
  HumidityRatioDifference,                !- Zone Latent Heating Design Supply Air Humidity Ratio Input Method
  ,                                       !- Zone Humidification Design Supply Air Humidity Ratio {kgWater/kgDryAir}
  0.005,                                  !- Zone Humidification Design Supply Air Humidity Ratio Difference {kgWater/kgDryAir}
  ,                                       !- Zone Humidistat Dehumidification Set Point Schedule Name
  ,                                       !- Zone Humidistat Humidification Set Point Schedule Name
  ,                                       !- Design Zone Air Distribution Effectiveness in Cooling Mode
  ,                                       !- Design Zone Air Distribution Effectiveness in Heating Mode
  ,                                       !- Design Zone Secondary Recirculation Fraction {dimensionless}
  ,                                       !- Design Minimum Zone Ventilation Efficiency {dimensionless}
  Coincident;                             !- Sizing Option

OS:ZoneHVAC:EquipmentList,
  {ff205467-1dd5-4958-a549-7ba2fe305f0f}, !- Handle
  Zone HVAC Equipment List 1,             !- Name
  {e7d10837-81ce-4dfb-b317-ea190301546d}, !- Thermal Zone
  ,                                       !- Load Distribution Scheme
  {48ff753a-33d8-4fde-8929-09ecf4f77b60}, !- Zone Equipment 1
  1,                                      !- Zone Equipment Cooling Sequence 1
  1,                                      !- Zone Equipment Heating or No-Load Sequence 1
  {30d4430d-0585-4438-ae79-4df198932596}, !- Zone Equipment Sequential Cooling Fraction Schedule Name 1
  {9c66e58f-8a17-4e78-b6fb-919a85eca598}; !- Zone Equipment Sequential Heating Fraction Schedule Name 1

OS:AdditionalProperties,
  {bd74cabb-ce1e-4bde-8ff6-2597cc26a52e}, !- Handle
  {e7d10837-81ce-4dfb-b317-ea190301546d}, !- Object Name
  ObjectType,                             !- Feature Name 1
  String,                                 !- Feature Data Type 1
  conditioned space;                      !- Feature Value 1

OS:Space,
  {16475086-4550-47c2-b22e-4d9fa669a26b}, !- Handle
  conditioned space 1,                    !- Name
  ,                                       !- Space Type Name
  ,                                       !- Default Construction Set Name
  ,                                       !- Default Schedule Set Name
  ,                                       !- Direction of Relative North {deg}
  ,                                       !- X Origin {m}
  ,                                       !- Y Origin {m}
  ,                                       !- Z Origin {m}
  ,                                       !- Building Story Name
  {e7d10837-81ce-4dfb-b317-ea190301546d}, !- Thermal Zone Name
  ,                                       !- Part of Total Floor Area
  ,                                       !- Design Specification Outdoor Air Object Name
  ,                                       !- Building Unit Name
  346.03186535424;                        !- Volume {m3}

OS:Schedule:Ruleset,
  {956f1bd5-28a9-4f04-9004-401573320247}, !- Handle
  heating setpoint,                       !- Name
  {a05f2f3b-f566-41fc-82f9-862317082eb4}, !- Schedule Type Limits Name
  {6232819e-149b-4cb7-9bf8-be8fddb7f79d}; !- Default Day Schedule Name

OS:Schedule:Day,
  {6232819e-149b-4cb7-9bf8-be8fddb7f79d}, !- Handle
  heating setpoint default day,           !- Name
  {a05f2f3b-f566-41fc-82f9-862317082eb4}, !- Schedule Type Limits Name
  ,                                       !- Interpolate to Timestep
  24,                                     !- Hour 1
  0,                                      !- Minute 1
  0;                                      !- Value Until Time 1

OS:Schedule:Rule,
  {bbdd51ba-bf9f-4c6e-b71f-2325afd62eba}, !- Handle
  heating setpoint allday rule,           !- Name
  {956f1bd5-28a9-4f04-9004-401573320247}, !- Schedule Ruleset Name
  0,                                      !- Rule Order
  {b84ae927-def0-4aaa-a840-6cd2800d5de8}, !- Day Schedule Name
  Yes,                                    !- Apply Sunday
  Yes,                                    !- Apply Monday
  Yes,                                    !- Apply Tuesday
  Yes,                                    !- Apply Wednesday
  Yes,                                    !- Apply Thursday
  Yes,                                    !- Apply Friday
  Yes,                                    !- Apply Saturday
  DateRange,                              !- Date Specification Type
  1,                                      !- Start Month
  1,                                      !- Start Day
  12,                                     !- End Month
  31;                                     !- End Day

OS:Schedule:Day,
  {b84ae927-def0-4aaa-a840-6cd2800d5de8}, !- Handle
  heating setpoint day,                   !- Name
  {a05f2f3b-f566-41fc-82f9-862317082eb4}, !- Schedule Type Limits Name
  ,                                       !- Interpolate to Timestep
  24,                                     !- Hour 1
  0,                                      !- Minute 1
  20;                                     !- Value Until Time 1

OS:Schedule:Ruleset,
  {9a69855d-6a83-497a-b675-804b8cfbae0f}, !- Handle
  cooling setpoint,                       !- Name
  {a05f2f3b-f566-41fc-82f9-862317082eb4}, !- Schedule Type Limits Name
  {cc952232-3267-454c-a544-d0096e6c61b3}; !- Default Day Schedule Name

OS:Schedule:Day,
  {cc952232-3267-454c-a544-d0096e6c61b3}, !- Handle
  cooling setpoint default day,           !- Name
  {a05f2f3b-f566-41fc-82f9-862317082eb4}, !- Schedule Type Limits Name
  ,                                       !- Interpolate to Timestep
  24,                                     !- Hour 1
  0,                                      !- Minute 1
  0;                                      !- Value Until Time 1

OS:Schedule:Rule,
  {8ff9b7f5-b9f8-448f-b318-edfb8fffc627}, !- Handle
  cooling setpoint allday rule,           !- Name
  {9a69855d-6a83-497a-b675-804b8cfbae0f}, !- Schedule Ruleset Name
  0,                                      !- Rule Order
  {05276054-8269-4263-8b72-2512d0ecf46e}, !- Day Schedule Name
  Yes,                                    !- Apply Sunday
  Yes,                                    !- Apply Monday
  Yes,                                    !- Apply Tuesday
  Yes,                                    !- Apply Wednesday
  Yes,                                    !- Apply Thursday
  Yes,                                    !- Apply Friday
  Yes,                                    !- Apply Saturday
  DateRange,                              !- Date Specification Type
  1,                                      !- Start Month
  1,                                      !- Start Day
  12,                                     !- End Month
  31;                                     !- End Day

OS:Schedule:Day,
  {05276054-8269-4263-8b72-2512d0ecf46e}, !- Handle
  cooling setpoint day,                   !- Name
  {a05f2f3b-f566-41fc-82f9-862317082eb4}, !- Schedule Type Limits Name
  ,                                       !- Interpolate to Timestep
  24,                                     !- Hour 1
  0,                                      !- Minute 1
  25.5555555555556;                       !- Value Until Time 1

OS:ThermostatSetpoint:DualSetpoint,
  {515e39db-8407-4eb9-ba2b-912765ad78e7}, !- Handle
  conditioned space temperature setpoint, !- Name
  {956f1bd5-28a9-4f04-9004-401573320247}, !- Heating Setpoint Temperature Schedule Name
  {9a69855d-6a83-497a-b675-804b8cfbae0f}, !- Cooling Setpoint Temperature Schedule Name
  0;                                      !- Temperature Difference Between Cutout And Setpoint {deltaC}

OS:ScheduleTypeLimits,
  {a05f2f3b-f566-41fc-82f9-862317082eb4}, !- Handle
  Temperature,                            !- Name
  ,                                       !- Lower Limit Value
  ,                                       !- Upper Limit Value
  Continuous,                             !- Numeric Type
  Temperature;                            !- Unit Type

OS:Surface,
  {52549d53-bc30-4d58-b785-0e1907a38157}, !- Handle
  Roof1,                                  !- Name
  RoofCeiling,                            !- Surface Type
  {af4cf41f-2cb4-4bee-af1c-dfa20ab427ec}, !- Construction Name
  {16475086-4550-47c2-b22e-4d9fa669a26b}, !- Space Name
  Outdoors,                               !- Outside Boundary Condition
  ,                                       !- Outside Boundary Condition Object
  SunExposed,                             !- Sun Exposure
  WindExposed,                            !- Wind Exposure
  ,                                       !- View Factor to Ground
  ,                                       !- Number of Vertices
  -5.95628646053898, 5.95628646053898, 3.048, !- X,Y,Z Vertex 1 {m}
  -5.95628646053898, -5.95628646053898, 3.048, !- X,Y,Z Vertex 2 {m}
  5.95628646053898, -5.95628646053898, 3.048, !- X,Y,Z Vertex 3 {m}
  5.95628646053898, 5.95628646053898, 3.048; !- X,Y,Z Vertex 4 {m}

OS:AdditionalProperties,
  {46a913f9-1d35-4139-be37-8f039cec2bdf}, !- Handle
  {52549d53-bc30-4d58-b785-0e1907a38157}, !- Object Name
  Length,                                 !- Feature Name 1
  Double,                                 !- Feature Data Type 1
  39.083244491725608,                     !- Feature Value 1
  Width,                                  !- Feature Name 2
  Double,                                 !- Feature Data Type 2
  39.083244491725608,                     !- Feature Value 2
  Azimuth,                                !- Feature Name 3
  Integer,                                !- Feature Data Type 3
  0,                                      !- Feature Value 3
  Tilt,                                   !- Feature Name 4
  Double,                                 !- Feature Data Type 4
  0,                                      !- Feature Value 4
  SurfaceType,                            !- Feature Name 5
  String,                                 !- Feature Data Type 5
  Roof;                                   !- Feature Value 5

OS:Material,
  {77f4398a-5e8b-47f0-a739-26fb73516e56}, !- Handle
  asphalt or fiberglass shingles,         !- Name
  Rough,                                  !- Roughness
  0.00635,                                !- Thickness {m}
  0.162714,                               !- Conductivity {W/m-K}
  1121.4,                                 !- Density {kg/m3}
  1465.45,                                !- Specific Heat {J/kg-K}
  0.9,                                    !- Thermal Absorptance
  0.85,                                   !- Solar Absorptance
  0.85;                                   !- Visible Absorptance

OS:Material,
  {bcd23731-bf34-40c4-ab05-1dadfd1f33b9}, !- Handle
  roof stud and cavity,                   !- Name
  Rough,                                  !- Roughness
  0.0889,                                 !- Thickness {m}
  0.491900632004487,                      !- Conductivity {W/m-K}
  50.32683,                               !- Density {kg/m3}
  1063.80987585548,                       !- Specific Heat {J/kg-K}
  0.9,                                    !- Thermal Absorptance
  0.7,                                    !- Solar Absorptance
  0.7;                                    !- Visible Absorptance

OS:Material,
  {1230d771-5679-493a-8e7f-292ee9f03936}, !- Handle
  gypsum board,                           !- Name
  Rough,                                  !- Roughness
  0.00254,                                !- Thickness {m}
  0.1602906,                              !- Conductivity {W/m-K}
  801,                                    !- Density {kg/m3}
  837.4,                                  !- Specific Heat {J/kg-K}
  0.9,                                    !- Thermal Absorptance
  0.6,                                    !- Solar Absorptance
  0.6;                                    !- Visible Absorptance

OS:Construction,
  {af4cf41f-2cb4-4bee-af1c-dfa20ab427ec}, !- Handle
  Roof1 construction,                     !- Name
  ,                                       !- Surface Rendering Name
  {77f4398a-5e8b-47f0-a739-26fb73516e56}, !- Layer 1
  {bcd23731-bf34-40c4-ab05-1dadfd1f33b9}, !- Layer 2
  {1230d771-5679-493a-8e7f-292ee9f03936}; !- Layer 3

OS:Surface,
  {39125388-e553-4320-915b-5166b1e2defb}, !- Handle
  Wall1,                                  !- Name
  Wall,                                   !- Surface Type
  {69566bf6-db96-439b-a0a1-aede0589d206}, !- Construction Name
  {16475086-4550-47c2-b22e-4d9fa669a26b}, !- Space Name
  Outdoors,                               !- Outside Boundary Condition
  ,                                       !- Outside Boundary Condition Object
  SunExposed,                             !- Sun Exposure
  WindExposed,                            !- Wind Exposure
  ,                                       !- View Factor to Ground
  ,                                       !- Number of Vertices
  -3.01645308575712, 5.40745691424288, 0.6096, !- X,Y,Z Vertex 1 {m}
  -3.01645308575712, 5.40745691424288, 5.4864, !- X,Y,Z Vertex 2 {m}
  5.40745691424288, 5.40745691424288, 5.4864, !- X,Y,Z Vertex 3 {m}
  5.40745691424288, 5.40745691424288, 0.6096; !- X,Y,Z Vertex 4 {m}

OS:AdditionalProperties,
  {8f5c5c30-6531-427c-a9d9-7c27e255bc0e}, !- Handle
  {39125388-e553-4320-915b-5166b1e2defb}, !- Object Name
  Length,                                 !- Feature Name 1
  Double,                                 !- Feature Data Type 1
  27.637499999999999,                     !- Feature Value 1
  Azimuth,                                !- Feature Name 2
  Integer,                                !- Feature Data Type 2
  0,                                      !- Feature Value 2
  Tilt,                                   !- Feature Name 3
  Double,                                 !- Feature Data Type 3
  90,                                     !- Feature Value 3
  SurfaceType,                            !- Feature Name 4
  String,                                 !- Feature Data Type 4
  Wall;                                   !- Feature Value 4

OS:Material,
  {69d9eab7-dd14-4569-b8fb-58caac2c1754}, !- Handle
  wood siding,                            !- Name
  Rough,                                  !- Roughness
  0.0254,                                 !- Thickness {m}
  0.1024175,                              !- Conductivity {W/m-K}
  544.68,                                 !- Density {kg/m3}
  1172.36,                                !- Specific Heat {J/kg-K}
  0.9,                                    !- Thermal Absorptance
  0.7,                                    !- Solar Absorptance
  0.7;                                    !- Visible Absorptance

OS:Material,
  {77a59548-0f8f-4b0d-bc9a-9974243b8d2f}, !- Handle
  osb sheathing 0.5 in.,                  !- Name
  Rough,                                  !- Roughness
  0.0127,                                 !- Thickness {m}
  0.1154577,                              !- Conductivity {W/m-K}
  512.64,                                 !- Density {kg/m3}
  1214.23,                                !- Specific Heat {J/kg-K}
  0.9,                                    !- Thermal Absorptance
  0.7,                                    !- Solar Absorptance
  0.7;                                    !- Visible Absorptance

OS:Material,
  {5a661211-0180-4583-9e91-f8fc8c3badb9}, !- Handle
  wall stud and cavity,                   !- Name
  Rough,                                  !- Roughness
  0.1397,                                 !- Thickness {m}
  0.0929021674204099,                     !- Conductivity {W/m-K}
  139.0536,                               !- Density {kg/m3}
  1170.23755760369,                       !- Specific Heat {J/kg-K}
  0.9,                                    !- Thermal Absorptance
  0.7,                                    !- Solar Absorptance
  0.7;                                    !- Visible Absorptance

OS:Material,
  {c6f91a08-c16a-415f-8ec4-d57b8896c5f5}, !- Handle
  gypsum board 1,                         !- Name
  Rough,                                  !- Roughness
  0.0127,                                 !- Thickness {m}
  0.1602906,                              !- Conductivity {W/m-K}
  801,                                    !- Density {kg/m3}
  837.4,                                  !- Specific Heat {J/kg-K}
  0.9,                                    !- Thermal Absorptance
  0.6,                                    !- Solar Absorptance
  0.6;                                    !- Visible Absorptance

OS:Construction,
  {69566bf6-db96-439b-a0a1-aede0589d206}, !- Handle
  Wall1 construction,                     !- Name
  ,                                       !- Surface Rendering Name
  {69d9eab7-dd14-4569-b8fb-58caac2c1754}, !- Layer 1
  {77a59548-0f8f-4b0d-bc9a-9974243b8d2f}, !- Layer 2
  {5a661211-0180-4583-9e91-f8fc8c3badb9}, !- Layer 3
  {c6f91a08-c16a-415f-8ec4-d57b8896c5f5}; !- Layer 4

OS:Surface,
  {f5b0a958-a280-47c9-9a3c-bf633c2901ac}, !- Handle
  Wall2,                                  !- Name
  Wall,                                   !- Surface Type
  {6ba8dfb5-449b-412e-b21e-6741cd5c1a2d}, !- Construction Name
  {16475086-4550-47c2-b22e-4d9fa669a26b}, !- Space Name
  Outdoors,                               !- Outside Boundary Condition
  ,                                       !- Outside Boundary Condition Object
  SunExposed,                             !- Sun Exposure
  WindExposed,                            !- Wind Exposure
  ,                                       !- View Factor to Ground
  ,                                       !- Number of Vertices
  5.40745691424288, -1.19550191424288, 0.6096, !- X,Y,Z Vertex 1 {m}
  5.40745691424288, -1.19550191424288, 5.4864, !- X,Y,Z Vertex 2 {m}
  5.40745691424288, -5.40745691424288, 5.4864, !- X,Y,Z Vertex 3 {m}
  5.40745691424288, -5.40745691424288, 0.6096; !- X,Y,Z Vertex 4 {m}

OS:AdditionalProperties,
  {f39bcea3-7304-4d22-9874-f96d18df3e5c}, !- Handle
  {f5b0a958-a280-47c9-9a3c-bf633c2901ac}, !- Object Name
  Length,                                 !- Feature Name 1
  Double,                                 !- Feature Data Type 1
  13.81875,                               !- Feature Value 1
  Azimuth,                                !- Feature Name 2