
OS:Version,
  {16fc06fc-de4f-4d9d-8647-b5c311ebf351}, !- Handle
  3.9.0;                                  !- Version Identifier

OS:SimulationControl,
  {cc1f0e10-7404-453e-9af8-a9feeb15f340}, !- Handle
  ,                                       !- Do Zone Sizing Calculation
  ,                                       !- Do System Sizing Calculation
  ,                                       !- Do Plant Sizing Calculation
  No;                                     !- Run Simulation for Sizing Periods

OS:Timestep,
  {27a56087-29a2-4cff-ba5f-0b35213ef951}, !- Handle
  1;                                      !- Number of Timesteps per Hour

OS:ShadowCalculation,
  {34530296-ccb2-4e23-8de8-a7e1d0488f8a}, !- Handle
  PolygonClipping,                        !- Shading Calculation Method
  ,                                       !- Shading Calculation Update Frequency Method
  20,                                     !- Shading Calculation Update Frequency
  200,                                    !- Maximum Figures in Shadow Overlap Calculations
  ,                                       !- Polygon Clipping Algorithm
  512,                                    !- Pixel Counting Resolution
  ,                                       !- Sky Diffuse Modeling Algorithm
  No,                                     !- Output External Shading Calculation Results
  No,                                     !- Disable Self-Shading Within Shading Zone Groups
  No;                                     !- Disable Self-Shading From Shading Zone Groups to Other Zones

OS:SurfaceConvectionAlgorithm:Outside,
  {3e8c03cb-dd56-44a4-a2ca-e6121670ed38}, !- Handle
  DOE-2;                                  !- Algorithm

OS:SurfaceConvectionAlgorithm:Inside,
  {364c013e-aa1e-4386-a970-94177916a90c}, !- Handle
  TARP;                                   !- Algorithm

OS:ZoneCapacitanceMultiplier:ResearchSpecial,
  {8902f4c6-6953-4160-a737-22044afd3046}, !- Handle
  7,                                      !- Temperature Capacity Multiplier
  15,                                     !- Humidity Capacity Multiplier
  ;                                       !- Carbon Dioxide Capacity Multiplier

OS:ConvergenceLimits,
  {f4d88ff1-8255-4ea6-97ec-48bf45b36a09}, !- Handle
  0;                                      !- Minimum System Timestep {minutes}

OS:RunPeriod,
  {40a589fe-759f-42f7-ac45-5fb6dd04b222}, !- Handle
  Run Period 1,                           !- Name
  1,                                      !- Begin Month
  1,                                      !- Begin Day of Month
  12,                                     !- End Month
  31,                                     !- End Day of Month
  ,                                       !- Use Weather File Holidays and Special Days
  ,                                       !- Use Weather File Daylight Saving Period
  ,                                       !- Apply Weekend Holiday Rule
  ,                                       !- Use Weather File Rain Indicators
  ,                                       !- Use Weather File Snow Indicators
  ;                                       !- Number of Times Runperiod to be Repeated

OS:PerformancePrecisionTradeoffs,
  {32a32338-6427-4d45-8aa8-ac1a27f3a0af}, !- Handle
  ,                                       !- Use Coil Direct Solutions
  CarrollMRT;                             !- Zone Radiant Exchange Algorithm

OS:WeatherFile,
  {6a57a9f3-7454-498a-ab67-a634a3ec2faf}, !- Handle
  Buffalo Niagara Intl Ap,                !- City
  NY,                                     !- State Province Region
  USA,                                    !- Country
  TMY3,                                   !- Data Source
  725280,                                 !- WMO Number
  42.93,                                  !- Latitude {deg}
  -78.73,                                 !- Longitude {deg}
  -5,                                     !- Time Zone {hr}
  215,                                    !- Elevation {m}
  /Users/nmoore/github/urbanopt-example-geojson-project/example_project/weather/USA_NY_Buffalo-Greater.Buffalo.Intl.AP.725280_TMY3.epw, !- Url
  6B50E0FF,                               !- Checksum
  ,                                       !- Start Date Actual Year
  Sunday;                                 !- Start Day of Week

OS:YearDescription,
  {456d9470-10e1-4330-9721-d7329cc896a7}, !- Handle
  2007,                                   !- Calendar Year
  ,                                       !- Day of Week for Start Day
  ;                                       !- Is Leap Year

OS:Site,
  {3e43be43-5d0c-43c9-b254-123845dfe7a0}, !- Handle
  Buffalo Niagara Intl Ap_NY,             !- Name
  42.93,                                  !- Latitude {deg}
  -78.73,                                 !- Longitude {deg}
  -5,                                     !- Time Zone {hr}
  215,                                    !- Elevation {m}
  Suburbs,                                !- Terrain
  Yes;                                    !- Keep Site Location Information

OS:RunPeriodControl:DaylightSavingTime,
  {a4f939e9-29ec-4680-bc94-854614a8e0dc}, !- Handle
  Mar 12,                                 !- Start Date
  Nov 5;                                  !- End Date

OS:Site:GroundTemperature:Shallow,
  {b9184c48-9eeb-4825-80ac-8724a8230387}, !- Handle
  4.30207395723828,                       !- January Surface Ground Temperature {C}
  2.29327249652502,                       !- February Surface Ground Temperature {C}
  2.13240047156047,                       !- March Surface Ground Temperature {C}
  3.08567940719286,                       !- April Surface Ground Temperature {C}
  6.91256312497526,                       !- May Surface Ground Temperature {C}
  10.7216195949507,                       !- June Surface Ground Temperature {C}
  14.0238679822574,                       !- July Surface Ground Temperature {C}
  16.1157611184724,                       !- August Surface Ground Temperature {C}
  16.2934789303462,                       !- September Surface Ground Temperature {C}
  14.5920754632847,                       !- October Surface Ground Temperature {C}
  11.374036348653,                        !- November Surface Ground Temperature {C}
  7.68182621661674;                       !- December Surface Ground Temperature {C}

OS:ThermalZone,
  {33fe18ea-7aec-4082-9f1b-c02ed9d8a39a}, !- Handle
  conditioned space,                      !- Name
  1,                                      !- Multiplier
  ,                                       !- Ceiling Height {m}
  346.03186535424,                        !- Volume {m3}
  ,                                       !- Floor Area {m2}
  ,                                       !- Zone Inside Convection Algorithm
  ,                                       !- Zone Outside Convection Algorithm
  ,                                       !- Zone Conditioning Equipment List Name
  {5ad8d0c5-1650-46be-a446-3130835689f2}, !- Zone Air Inlet Port List
  {548fc756-0dcd-49c9-82dc-ec143275a62e}, !- Zone Air Exhaust Port List
  {cc597f7f-cf3d-4268-8976-a7143133675d}, !- Zone Air Node Name
  {387014cb-ccb1-4695-a60f-a993ada937f1}, !- Zone Return Air Port List
  ,                                       !- Primary Daylighting Control Name
  ,                                       !- Fraction of Zone Controlled by Primary Daylighting Control
  ,                                       !- Secondary Daylighting Control Name
  ,                                       !- Fraction of Zone Controlled by Secondary Daylighting Control
  ,                                       !- Illuminance Map Name
  ,                                       !- Group Rendering Name
  {b8af073b-923a-4581-9018-d1e0bfe9d7a1}, !- Thermostat Name
  No;                                     !- Use Ideal Air Loads

OS:Node,
  {46d2a1fd-4392-472f-bb7e-26579c62a20e}, !- Handle
  Node 1,                                 !- Name
  {cc597f7f-cf3d-4268-8976-a7143133675d}, !- Inlet Port
  ;                                       !- Outlet Port

OS:Connection,
  {cc597f7f-cf3d-4268-8976-a7143133675d}, !- Handle
  {33fe18ea-7aec-4082-9f1b-c02ed9d8a39a}, !- Source Object
  11,                                     !- Outlet Port
  {46d2a1fd-4392-472f-bb7e-26579c62a20e}, !- Target Object
  2;                                      !- Inlet Port

OS:PortList,
  {5ad8d0c5-1650-46be-a446-3130835689f2}, !- Handle
  {33fe18ea-7aec-4082-9f1b-c02ed9d8a39a}, !- HVAC Component
  {b35e90ac-8f04-4920-8716-a89b1eb9a7b8}; !- Port 1

OS:PortList,
  {548fc756-0dcd-49c9-82dc-ec143275a62e}, !- Handle
  {33fe18ea-7aec-4082-9f1b-c02ed9d8a39a}; !- HVAC Component

OS:PortList,
  {387014cb-ccb1-4695-a60f-a993ada937f1}, !- Handle
  {33fe18ea-7aec-4082-9f1b-c02ed9d8a39a}, !- HVAC Component
  {1349ed57-f1f6-469e-ace8-666997d1102e}; !- Port 1

OS:Sizing:Zone,
  {b03b760a-47a9-4af7-a22c-54bb81ec97e7}, !- Handle
  {33fe18ea-7aec-4082-9f1b-c02ed9d8a39a}, !- Zone or ZoneList Name
  SupplyAirTemperature,                   !- Zone Cooling Design Supply Air Temperature Input Method
  14,                                     !- Zone Cooling Design Supply Air Temperature {C}
  11.11,                                  !- Zone Cooling Design Supply Air Temperature Difference {deltaC}
  SupplyAirTemperature,                   !- Zone Heating Design Supply Air Temperature Input Method
  40,                                     !- Zone Heating Design Supply Air Temperature {C}
  11.11,                                  !- Zone Heating Design Supply Air Temperature Difference {deltaC}
  0.0085,                                 !- Zone Cooling Design Supply Air Humidity Ratio {kg-H2O/kg-air}
  0.008,                                  !- Zone Heating Design Supply Air Humidity Ratio {kg-H2O/kg-air}
  ,                                       !- Zone Heating Sizing Factor
  ,                                       !- Zone Cooling Sizing Factor
  DesignDay,                              !- Cooling Design Air Flow Method
  ,                                       !- Cooling Design Air Flow Rate {m3/s}
  ,                                       !- Cooling Minimum Air Flow per Zone Floor Area {m3/s-m2}
  ,                                       !- Cooling Minimum Air Flow {m3/s}
  ,                                       !- Cooling Minimum Air Flow Fraction
  DesignDay,                              !- Heating Design Air Flow Method
  ,                                       !- Heating Design Air Flow Rate {m3/s}
  ,                                       !- Heating Maximum Air Flow per Zone Floor Area {m3/s-m2}
  ,                                       !- Heating Maximum Air Flow {m3/s}
  ,                                       !- Heating Maximum Air Flow Fraction
  No,                                     !- Account for Dedicated Outdoor Air System
  NeutralSupplyAir,                       !- Dedicated Outdoor Air System Control Strategy
  autosize,                               !- Dedicated Outdoor Air Low Setpoint Temperature for Design {C}
  autosize,                               !- Dedicated Outdoor Air High Setpoint Temperature for Design {C}
  Sensible Load Only No Latent Load,      !- Zone Load Sizing Method
  HumidityRatioDifference,                !- Zone Latent Cooling Design Supply Air Humidity Ratio Input Method
  ,                                       !- Zone Dehumidification Design Supply Air Humidity Ratio {kgWater/kgDryAir}
  0.005,                                  !- Zone Cooling Design Supply Air Humidity Ratio Difference {kgWater/kgDryAir}
  HumidityRatioDifference,                !- Zone Latent Heating Design Supply Air Humidity Ratio Input Method
  ,                                       !- Zone Humidification Design Supply Air Humidity Ratio {kgWater/kgDryAir}
  0.005,                                  !- Zone Humidification Design Supply Air Humidity Ratio Difference {kgWater/kgDryAir}
  ,                                       !- Zone Humidistat Dehumidification Set Point Schedule Name
  ,                                       !- Zone Humidistat Humidification Set Point Schedule Name
  ,                                       !- Design Zone Air Distribution Effectiveness in Cooling Mode
  ,                                       !- Design Zone Air Distribution Effectiveness in Heating Mode
  ,                                       !- Design Zone Secondary Recirculation Fraction {dimensionless}
  ,                                       !- Design Minimum Zone Ventilation Efficiency {dimensionless}
  Coincident;                             !- Sizing Option

OS:ZoneHVAC:EquipmentList,
  {a14647dc-e92c-4f2f-bcc9-2ff9dbbcd9f1}, !- Handle
  Zone HVAC Equipment List 1,             !- Name
  {33fe18ea-7aec-4082-9f1b-c02ed9d8a39a}, !- Thermal Zone
  ,                                       !- Load Distribution Scheme
  {f3e85c3a-c9bc-442a-a032-fbca7b360cf5}, !- Zone Equipment 1
  1,                                      !- Zone Equipment Cooling Sequence 1
  1,                                      !- Zone Equipment Heating or No-Load Sequence 1
  {e1a87eb7-b582-4dd6-ad2e-76a64ff96628}, !- Zone Equipment Sequential Cooling Fraction Schedule Name 1
  {09ca2386-eae4-424a-ae1f-c87b9710933a}; !- Zone Equipment Sequential Heating Fraction Schedule Name 1

OS:AdditionalProperties,
  {6a52d0d5-5d7a-4644-9f62-6be6ffb6f231}, !- Handle
  {33fe18ea-7aec-4082-9f1b-c02ed9d8a39a}, !- Object Name
  ObjectType,                             !- Feature Name 1
  String,                                 !- Feature Data Type 1
  conditioned space;                      !- Feature Value 1

OS:Space,
  {6e18af95-e447-41e1-a752-6cfa659abd7f}, !- Handle
  conditioned space 1,                    !- Name
  ,                                       !- Space Type Name
  ,                                       !- Default Construction Set Name
  ,                                       !- Default Schedule Set Name
  ,                                       !- Direction of Relative North {deg}
  ,                                       !- X Origin {m}
  ,                                       !- Y Origin {m}
  ,                                       !- Z Origin {m}
  ,                                       !- Building Story Name
  {33fe18ea-7aec-4082-9f1b-c02ed9d8a39a}, !- Thermal Zone Name
  ,                                       !- Part of Total Floor Area
  ,                                       !- Design Specification Outdoor Air Object Name
  ,                                       !- Building Unit Name
  346.03186535424;                        !- Volume {m3}

OS:Schedule:Ruleset,
  {b61f3737-4d39-4046-86f3-6d1f34292d85}, !- Handle
  heating setpoint,                       !- Name
  {828c15ef-92ff-4071-b603-cac082484d82}, !- Schedule Type Limits Name
  {f2843e86-8e0f-4791-b87c-a68b5e59b07c}; !- Default Day Schedule Name

OS:Schedule:Day,
  {f2843e86-8e0f-4791-b87c-a68b5e59b07c}, !- Handle
  heating setpoint default day,           !- Name
  {828c15ef-92ff-4071-b603-cac082484d82}, !- Schedule Type Limits Name
  ,                                       !- Interpolate to Timestep
  24,                                     !- Hour 1
  0,                                      !- Minute 1
  0;                                      !- Value Until Time 1

OS:Schedule:Rule,
  {fa21227c-8915-4025-8033-4a338b32c158}, !- Handle
  heating setpoint allday rule,           !- Name
  {b61f3737-4d39-4046-86f3-6d1f34292d85}, !- Schedule Ruleset Name
  0,                                      !- Rule Order
  {a604dcc2-dbca-4f44-a5fe-17615e8cd771}, !- Day Schedule Name
  Yes,                                    !- Apply Sunday
  Yes,                                    !- Apply Monday
  Yes,                                    !- Apply Tuesday
  Yes,                                    !- Apply Wednesday
  Yes,                                    !- Apply Thursday
  Yes,                                    !- Apply Friday
  Yes,                                    !- Apply Saturday
  DateRange,                              !- Date Specification Type
  1,                                      !- Start Month
  1,                                      !- Start Day
  12,                                     !- End Month
  31;                                     !- End Day

OS:Schedule:Day,
  {a604dcc2-dbca-4f44-a5fe-17615e8cd771}, !- Handle
  heating setpoint day,                   !- Name
  {828c15ef-92ff-4071-b603-cac082484d82}, !- Schedule Type Limits Name
  ,                                       !- Interpolate to Timestep
  24,                                     !- Hour 1
  0,                                      !- Minute 1
  20;                                     !- Value Until Time 1

OS:Schedule:Ruleset,
  {874f0dcc-1a30-4a32-a449-ced36fa32d88}, !- Handle
  cooling setpoint,                       !- Name
  {828c15ef-92ff-4071-b603-cac082484d82}, !- Schedule Type Limits Name
  {3bf7dddc-8cb6-4a32-ba41-6d801d70026c}; !- Default Day Schedule Name

OS:Schedule:Day,
  {3bf7dddc-8cb6-4a32-ba41-6d801d70026c}, !- Handle
  cooling setpoint default day,           !- Name
  {828c15ef-92ff-4071-b603-cac082484d82}, !- Schedule Type Limits Name
  ,                                       !- Interpolate to Timestep
  24,                                     !- Hour 1
  0,                                      !- Minute 1
  0;                                      !- Value Until Time 1

OS:Schedule:Rule,
  {67060e50-1f28-4c06-abb1-a00022a4a707}, !- Handle
  cooling setpoint allday rule,           !- Name
  {874f0dcc-1a30-4a32-a449-ced36fa32d88}, !- Schedule Ruleset Name
  0,                                      !- Rule Order
  {5d81d8d4-a0cc-4404-be64-d52445b8646a}, !- Day Schedule Name
  Yes,                                    !- Apply Sunday
  Yes,                                    !- Apply Monday
  Yes,                                    !- Apply Tuesday
  Yes,                                    !- Apply Wednesday
  Yes,                                    !- Apply Thursday
  Yes,                                    !- Apply Friday
  Yes,                                    !- Apply Saturday
  DateRange,                              !- Date Specification Type
  1,                                      !- Start Month
  1,                                      !- Start Day
  12,                                     !- End Month
  31;                                     !- End Day

OS:Schedule:Day,
  {5d81d8d4-a0cc-4404-be64-d52445b8646a}, !- Handle
  cooling setpoint day,                   !- Name
  {828c15ef-92ff-4071-b603-cac082484d82}, !- Schedule Type Limits Name
  ,                                       !- Interpolate to Timestep
  24,                                     !- Hour 1
  0,                                      !- Minute 1
  25.5555555555556;                       !- Value Until Time 1

OS:ThermostatSetpoint:DualSetpoint,
  {b8af073b-923a-4581-9018-d1e0bfe9d7a1}, !- Handle
  conditioned space temperature setpoint, !- Name
  {b61f3737-4d39-4046-86f3-6d1f34292d85}, !- Heating Setpoint Temperature Schedule Name
  {874f0dcc-1a30-4a32-a449-ced36fa32d88}, !- Cooling Setpoint Temperature Schedule Name
  0;                                      !- Temperature Difference Between Cutout And Setpoint {deltaC}

OS:ScheduleTypeLimits,
  {828c15ef-92ff-4071-b603-cac082484d82}, !- Handle
  Temperature,                            !- Name
  ,                                       !- Lower Limit Value
  ,                                       !- Upper Limit Value
  Continuous,                             !- Numeric Type
  Temperature;                            !- Unit Type

OS:Surface,
  {6b649693-325c-439c-becd-c7402ba7a126}, !- Handle
  Roof1,                                  !- Name
  RoofCeiling,                            !- Surface Type
  {0b9bc1aa-63ca-4e57-ae05-f7ced42972d8}, !- Construction Name
  {6e18af95-e447-41e1-a752-6cfa659abd7f}, !- Space Name
  Outdoors,                               !- Outside Boundary Condition
  ,                                       !- Outside Boundary Condition Object
  SunExposed,                             !- Sun Exposure
  WindExposed,                            !- Wind Exposure
  ,                                       !- View Factor to Ground
  ,                                       !- Number of Vertices
  -5.95628646053898, 5.95628646053898, 3.048, !- X,Y,Z Vertex 1 {m}
  -5.95628646053898, -5.95628646053898, 3.048, !- X,Y,Z Vertex 2 {m}
  5.95628646053898, -5.95628646053898, 3.048, !- X,Y,Z Vertex 3 {m}
  5.95628646053898, 5.95628646053898, 3.048; !- X,Y,Z Vertex 4 {m}

OS:AdditionalProperties,
  {45caa42a-a399-4f17-8f02-df5b48b981ba}, !- Handle
  {6b649693-325c-439c-becd-c7402ba7a126}, !- Object Name
  Length,                                 !- Feature Name 1
  Double,                                 !- Feature Data Type 1
  39.083244491725608,                     !- Feature Value 1
  Width,                                  !- Feature Name 2
  Double,                                 !- Feature Data Type 2
  39.083244491725608,                     !- Feature Value 2
  Azimuth,                                !- Feature Name 3
  Integer,                                !- Feature Data Type 3
  0,                                      !- Feature Value 3
  Tilt,                                   !- Feature Name 4
  Double,                                 !- Feature Data Type 4
  0,                                      !- Feature Value 4
  SurfaceType,                            !- Feature Name 5
  String,                                 !- Feature Data Type 5
  Roof;                                   !- Feature Value 5

OS:Material,
  {78be3f25-902a-4760-8e38-e0bf595f1a83}, !- Handle
  asphalt or fiberglass shingles,         !- Name
  Rough,                                  !- Roughness
  0.00635,                                !- Thickness {m}
  0.162714,                               !- Conductivity {W/m-K}
  1121.4,                                 !- Density {kg/m3}
  1465.45,                                !- Specific Heat {J/kg-K}
  0.9,                                    !- Thermal Absorptance
  0.85,                                   !- Solar Absorptance
  0.85;                                   !- Visible Absorptance

OS:Material,
  {f82c252c-bcb7-4edd-99ea-d3aa7794d194}, !- Handle
  roof stud and cavity,                   !- Name
  Rough,                                  !- Roughness
  0.0889,                                 !- Thickness {m}
  0.491900632004487,                      !- Conductivity {W/m-K}
  50.32683,                               !- Density {kg/m3}
  1063.80987585548,                       !- Specific Heat {J/kg-K}
  0.9,                                    !- Thermal Absorptance
  0.7,                                    !- Solar Absorptance
  0.7;                                    !- Visible Absorptance

OS:Material,
  {c62b1d14-0979-4faa-837b-df495e8feb59}, !- Handle
  gypsum board,                           !- Name
  Rough,                                  !- Roughness
  0.00254,                                !- Thickness {m}
  0.1602906,                              !- Conductivity {W/m-K}
  801,                                    !- Density {kg/m3}
  837.4,                                  !- Specific Heat {J/kg-K}
  0.9,                                    !- Thermal Absorptance
  0.6,                                    !- Solar Absorptance
  0.6;                                    !- Visible Absorptance

OS:Construction,
  {0b9bc1aa-63ca-4e57-ae05-f7ced42972d8}, !- Handle
  Roof1 construction,                     !- Name
  ,                                       !- Surface Rendering Name
  {78be3f25-902a-4760-8e38-e0bf595f1a83}, !- Layer 1
  {f82c252c-bcb7-4edd-99ea-d3aa7794d194}, !- Layer 2
  {c62b1d14-0979-4faa-837b-df495e8feb59}; !- Layer 3

OS:Surface,
  {7f5c7122-9d61-48c2-876e-fa6513478918}, !- Handle
  Wall1,                                  !- Name
  Wall,                                   !- Surface Type
  {92ceaee6-5fe3-43bb-8f49-09b12298a1af}, !- Construction Name
  {6e18af95-e447-41e1-a752-6cfa659abd7f}, !- Space Name
  Outdoors,                               !- Outside Boundary Condition
  ,                                       !- Outside Boundary Condition Object
  SunExposed,                             !- Sun Exposure
  WindExposed,                            !- Wind Exposure
  ,                                       !- View Factor to Ground
  ,                                       !- Number of Vertices
  -3.01645308575712, 5.40745691424288, 0.6096, !- X,Y,Z Vertex 1 {m}
  -3.01645308575712, 5.40745691424288, 5.4864, !- X,Y,Z Vertex 2 {m}
  5.40745691424288, 5.40745691424288, 5.4864, !- X,Y,Z Vertex 3 {m}
  5.40745691424288, 5.40745691424288, 0.6096; !- X,Y,Z Vertex 4 {m}

OS:AdditionalProperties,
  {5dd6851c-c0aa-41f7-850a-38a795289bd0}, !- Handle
  {7f5c7122-9d61-48c2-876e-fa6513478918}, !- Object Name
  Length,                                 !- Feature Name 1
  Double,                                 !- Feature Data Type 1
  27.637499999999999,                     !- Feature Value 1
  Azimuth,                                !- Feature Name 2
  Integer,                                !- Feature Data Type 2
  0,                                      !- Feature Value 2
  Tilt,                                   !- Feature Name 3
  Double,                                 !- Feature Data Type 3
  90,                                     !- Feature Value 3
  SurfaceType,                            !- Feature Name 4
  String,                                 !- Feature Data Type 4
  Wall;                                   !- Feature Value 4

OS:Material,
  {5b7dc39d-e665-447c-8cd8-aa49109cadae}, !- Handle
  wood siding,                            !- Name
  Rough,                                  !- Roughness
  0.0254,                                 !- Thickness {m}
  0.1024175,                              !- Conductivity {W/m-K}
  544.68,                                 !- Density {kg/m3}
  1172.36,                                !- Specific Heat {J/kg-K}
  0.9,                                    !- Thermal Absorptance
  0.7,                                    !- Solar Absorptance
  0.7;                                    !- Visible Absorptance

OS:Material,
  {17ad7d6d-95e4-4c08-9aa0-977b8c02353f}, !- Handle
  osb sheathing 0.5 in.,                  !- Name
  Rough,                                  !- Roughness
  0.0127,                                 !- Thickness {m}
  0.1154577,                              !- Conductivity {W/m-K}
  512.64,                                 !- Density {kg/m3}
  1214.23,                                !- Specific Heat {J/kg-K}
  0.9,                                    !- Thermal Absorptance
  0.7,                                    !- Solar Absorptance
  0.7;                                    !- Visible Absorptance

OS:Material,
  {181ce72a-8af4-41f8-be64-831a0c0b4af4}, !- Handle
  wall stud and cavity,                   !- Name
  Rough,                                  !- Roughness
  0.1397,                                 !- Thickness {m}
  0.0929021674204099,                     !- Conductivity {W/m-K}
  139.0536,                               !- Density {kg/m3}
  1170.23755760369,                       !- Specific Heat {J/kg-K}
  0.9,                                    !- Thermal Absorptance
  0.7,                                    !- Solar Absorptance
  0.7;                                    !- Visible Absorptance

OS:Material,
  {549b9890-a277-4dec-b838-0818ce6fef05}, !- Handle
  gypsum board 1,                         !- Name
  Rough,                                  !- Roughness
  0.0127,                                 !- Thickness {m}
  0.1602906,                              !- Conductivity {W/m-K}
  801,                                    !- Density {kg/m3}
  837.4,                                  !- Specific Heat {J/kg-K}
  0.9,                                    !- Thermal Absorptance
  0.6,                                    !- Solar Absorptance
  0.6;                                    !- Visible Absorptance

OS:Construction,
  {92ceaee6-5fe3-43bb-8f49-09b12298a1af}, !- Handle
  Wall1 construction,                     !- Name
  ,                                       !- Surface Rendering Name
  {5b7dc39d-e665-447c-8cd8-aa49109cadae}, !- Layer 1
  {17ad7d6d-95e4-4c08-9aa0-977b8c02353f}, !- Layer 2
  {181ce72a-8af4-41f8-be64-831a0c0b4af4}, !- Layer 3
  {549b9890-a277-4dec-b838-0818ce6fef05}; !- Layer 4

OS:Surface,
  {0d95f057-b7d6-441e-a2a2-51af21b2de83}, !- Handle
  Wall2,                                  !- Name
  Wall,                                   !- Surface Type
  {f6da6db5-2d74-477b-8485-0bb82ae3cd3f}, !- Construction Name
  {6e18af95-e447-41e1-a752-6cfa659abd7f}, !- Space Name
  Outdoors,                               !- Outside Boundary Condition
  ,                                       !- Outside Boundary Condition Object
  SunExposed,                             !- Sun Exposure
  WindExposed,                            !- Wind Exposure
  ,                                       !- View Factor to Ground
  ,                                       !- Number of Vertices
  5.40745691424288, -1.19550191424288, 0.6096, !- X,Y,Z Vertex 1 {m}
  5.40745691424288, -1.19550191424288, 5.4864, !- X,Y,Z Vertex 2 {m}
  5.40745691424288, -5.40745691424288, 5.4864, !- X,Y,Z Vertex 3 {m}
  5.40745691424288, -5.40745691424288, 0.6096; !- X,Y,Z Vertex 4 {m}

OS:AdditionalProperties,
  {eb7db7e7-2418-424f-9441-31bcb22becb3}, !- Handle
  {0d95f057-b7d6-441e-a2a2-51af21b2de83}, !- Object Name
  Length,                                 !- Feature Name 1
  Double,                                 !- Feature Data Type 1
  13.81875,                               !- Feature Value 1
  Azimuth,                                !- Feature Name 2