
OS:Version,
  {97901691-9d9b-4831-8432-30ceb7be88c6}, !- Handle
  3.10.0;                                 !- Version Identifier

OS:SimulationControl,
  {abcc6d04-5c82-4aba-bdfa-5bcdb110a44d}, !- Handle
  ,                                       !- Do Zone Sizing Calculation
  ,                                       !- Do System Sizing Calculation
  ,                                       !- Do Plant Sizing Calculation
  No;                                     !- Run Simulation for Sizing Periods

OS:Timestep,
  {014dc791-e28e-4eaf-b359-5fbe3fe67a89}, !- Handle
  1;                                      !- Number of Timesteps per Hour

OS:ShadowCalculation,
  {e20dea14-7155-48cb-93ad-57abc4ec917e}, !- Handle
  PolygonClipping,                        !- Shading Calculation Method
  ,                                       !- Shading Calculation Update Frequency Method
  20,                                     !- Shading Calculation Update Frequency
  200,                                    !- Maximum Figures in Shadow Overlap Calculations
  ,                                       !- Polygon Clipping Algorithm
  512,                                    !- Pixel Counting Resolution
  ,                                       !- Sky Diffuse Modeling Algorithm
  No,                                     !- Output External Shading Calculation Results
  No,                                     !- Disable Self-Shading Within Shading Zone Groups
  No;                                     !- Disable Self-Shading From Shading Zone Groups to Other Zones

OS:SurfaceConvectionAlgorithm:Outside,
  {0c8dc832-b655-4827-9382-0618315741db}, !- Handle
  DOE-2;                                  !- Algorithm

OS:SurfaceConvectionAlgorithm:Inside,
  {cfda2424-ca76-40d9-9bd2-d7506a0358aa}, !- Handle
  TARP;                                   !- Algorithm

OS:ZoneCapacitanceMultiplier:ResearchSpecial,
  {27af4b60-f882-48ce-a24b-be3605e90f43}, !- Handle
  7,                                      !- Temperature Capacity Multiplier
  15,                                     !- Humidity Capacity Multiplier
  ;                                       !- Carbon Dioxide Capacity Multiplier

OS:ConvergenceLimits,
  {7944be21-f54d-4e86-96dd-81cec0c2627a}, !- Handle
  0;                                      !- Minimum System Timestep {minutes}

OS:RunPeriod,
  {b7af10ce-29e4-4a80-b8ff-b7c1427bd9e9}, !- Handle
  Run Period 1,                           !- Name
  1,                                      !- Begin Month
  1,                                      !- Begin Day of Month
  12,                                     !- End Month
  31,                                     !- End Day of Month
  ,                                       !- Use Weather File Holidays and Special Days
  ,                                       !- Use Weather File Daylight Saving Period
  ,                                       !- Apply Weekend Holiday Rule
  ,                                       !- Use Weather File Rain Indicators
  ,                                       !- Use Weather File Snow Indicators
  ;                                       !- Number of Times Runperiod to be Repeated

OS:PerformancePrecisionTradeoffs,
  {a074d6a9-2f04-471b-ab7e-45bc4b7da899}, !- Handle
  ,                                       !- Use Coil Direct Solutions
  CarrollMRT;                             !- Zone Radiant Exchange Algorithm

OS:WeatherFile,
  {432d75cb-aca4-4eb9-a3cb-3ef9abe84546}, !- Handle
  Buffalo Niagara Intl Ap,                !- City
  NY,                                     !- State Province Region
  USA,                                    !- Country
  TMY3,                                   !- Data Source
  725280,                                 !- WMO Number
  42.93,                                  !- Latitude {deg}
  -78.73,                                 !- Longitude {deg}
  -5,                                     !- Time Zone {hr}
  215,                                    !- Elevation {m}
  /Users/nmoore/github/urbanopt-example-geojson-project/example_project/weather/USA_NY_Buffalo-Greater.Buffalo.Intl.AP.725280_TMY3.epw, !- Url
  6B50E0FF,                               !- Checksum
  ,                                       !- Start Date Actual Year
  Sunday;                                 !- Start Day of Week

OS:YearDescription,
  {2efb502b-cbdd-497c-903a-e03545de6044}, !- Handle
  2007,                                   !- Calendar Year
  ,                                       !- Day of Week for Start Day
  ;                                       !- Is Leap Year

OS:Site,
  {9b465de0-b835-4e26-aa97-87c94624bfb2}, !- Handle
  Buffalo Niagara Intl Ap_NY,             !- Name
  42.93,                                  !- Latitude {deg}
  -78.73,                                 !- Longitude {deg}
  -5,                                     !- Time Zone {hr}
  215,                                    !- Elevation {m}
  Suburbs,                                !- Terrain
  Yes;                                    !- Keep Site Location Information

OS:RunPeriodControl:DaylightSavingTime,
  {787b96ce-b9cb-4d4b-b572-6ba72db08db6}, !- Handle
  Mar 12,                                 !- Start Date
  Nov 5;                                  !- End Date

OS:Site:GroundTemperature:Shallow,
  {2bebb2fe-064f-4ed2-9690-2d4433977eee}, !- Handle
  4.30207395723828,                       !- January Surface Ground Temperature {C}
  2.29327249652502,                       !- February Surface Ground Temperature {C}
  2.13240047156047,                       !- March Surface Ground Temperature {C}
  3.08567940719286,                       !- April Surface Ground Temperature {C}
  6.91256312497526,                       !- May Surface Ground Temperature {C}
  10.7216195949507,                       !- June Surface Ground Temperature {C}
  14.0238679822574,                       !- July Surface Ground Temperature {C}
  16.1157611184724,                       !- August Surface Ground Temperature {C}
  16.2934789303462,                       !- September Surface Ground Temperature {C}
  14.5920754632847,                       !- October Surface Ground Temperature {C}
  11.374036348653,                        !- November Surface Ground Temperature {C}
  7.68182621661674;                       !- December Surface Ground Temperature {C}

OS:ThermalZone,
  {45f1e0b5-de54-455b-a15f-4fff62c5c3c8}, !- Handle
  conditioned space,                      !- Name
  1,                                      !- Multiplier
  ,                                       !- Ceiling Height {m}
  692.06373070848,                        !- Volume {m3}
  ,                                       !- Floor Area {m2}
  ,                                       !- Zone Inside Convection Algorithm
  ,                                       !- Zone Outside Convection Algorithm
  ,                                       !- Zone Conditioning Equipment List Name
  {bfbc2172-b0da-40f5-976b-d65f0f8d4f0b}, !- Zone Air Inlet Port List
  {f4370d63-274a-4ca0-8d0d-0fa37eefad3c}, !- Zone Air Exhaust Port List
  {9ef7db34-1dff-48a0-8d59-4ac3eef10bac}, !- Zone Air Node Name
  {818ad0a5-9967-41d4-a488-484c7e03f168}, !- Zone Return Air Port List
  ,                                       !- Primary Daylighting Control Name
  ,                                       !- Fraction of Zone Controlled by Primary Daylighting Control
  ,                                       !- Secondary Daylighting Control Name
  ,                                       !- Fraction of Zone Controlled by Secondary Daylighting Control
  ,                                       !- Illuminance Map Name
  ,                                       !- Group Rendering Name
  {6cea9181-63ea-4175-a9b3-8bf6c0095f5e}, !- Thermostat Name
  No;                                     !- Use Ideal Air Loads

OS:Node,
  {8e94639f-27cb-4531-9627-6f7abf9a8555}, !- Handle
  Node 1,                                 !- Name
  {9ef7db34-1dff-48a0-8d59-4ac3eef10bac}, !- Inlet Port
  ;                                       !- Outlet Port

OS:Connection,
  {9ef7db34-1dff-48a0-8d59-4ac3eef10bac}, !- Handle
  {45f1e0b5-de54-455b-a15f-4fff62c5c3c8}, !- Source Object
  11,                                     !- Outlet Port
  {8e94639f-27cb-4531-9627-6f7abf9a8555}, !- Target Object
  2;                                      !- Inlet Port

OS:PortList,
  {bfbc2172-b0da-40f5-976b-d65f0f8d4f0b}, !- Handle
  {45f1e0b5-de54-455b-a15f-4fff62c5c3c8}, !- HVAC Component
  {aee631ce-9697-41e0-9acd-817d931623d8}; !- Port 1

OS:PortList,
  {f4370d63-274a-4ca0-8d0d-0fa37eefad3c}, !- Handle
  {45f1e0b5-de54-455b-a15f-4fff62c5c3c8}; !- HVAC Component

OS:PortList,
  {818ad0a5-9967-41d4-a488-484c7e03f168}, !- Handle
  {45f1e0b5-de54-455b-a15f-4fff62c5c3c8}, !- HVAC Component
  {0f9a1448-cd49-4eda-a820-7d5c72e35447}; !- Port 1

OS:Sizing:Zone,
  {7bf49f6a-d51e-4ccf-b24d-f43703dbdd2d}, !- Handle
  {45f1e0b5-de54-455b-a15f-4fff62c5c3c8}, !- Zone or ZoneList Name
  SupplyAirTemperature,                   !- Zone Cooling Design Supply Air Temperature Input Method
  14,                                     !- Zone Cooling Design Supply Air Temperature {C}
  11.11,                                  !- Zone Cooling Design Supply Air Temperature Difference {deltaC}
  SupplyAirTemperature,                   !- Zone Heating Design Supply Air Temperature Input Method
  40,                                     !- Zone Heating Design Supply Air Temperature {C}
  11.11,                                  !- Zone Heating Design Supply Air Temperature Difference {deltaC}
  0.0085,                                 !- Zone Cooling Design Supply Air Humidity Ratio {kg-H2O/kg-air}
  0.008,                                  !- Zone Heating Design Supply Air Humidity Ratio {kg-H2O/kg-air}
  ,                                       !- Zone Heating Sizing Factor
  ,                                       !- Zone Cooling Sizing Factor
  DesignDay,                              !- Cooling Design Air Flow Method
  ,                                       !- Cooling Design Air Flow Rate {m3/s}
  ,                                       !- Cooling Minimum Air Flow per Zone Floor Area {m3/s-m2}
  ,                                       !- Cooling Minimum Air Flow {m3/s}
  ,                                       !- Cooling Minimum Air Flow Fraction
  DesignDay,                              !- Heating Design Air Flow Method
  ,                                       !- Heating Design Air Flow Rate {m3/s}
  ,                                       !- Heating Maximum Air Flow per Zone Floor Area {m3/s-m2}
  ,                                       !- Heating Maximum Air Flow {m3/s}
  ,                                       !- Heating Maximum Air Flow Fraction
  No,                                     !- Account for Dedicated Outdoor Air System
  NeutralSupplyAir,                       !- Dedicated Outdoor Air System Control Strategy
  autosize,                               !- Dedicated Outdoor Air Low Setpoint Temperature for Design {C}
  autosize,                               !- Dedicated Outdoor Air High Setpoint Temperature for Design {C}
  Sensible Load Only No Latent Load,      !- Zone Load Sizing Method
  HumidityRatioDifference,                !- Zone Latent Cooling Design Supply Air Humidity Ratio Input Method
  ,                                       !- Zone Dehumidification Design Supply Air Humidity Ratio {kgWater/kgDryAir}
  0.005,                                  !- Zone Cooling Design Supply Air Humidity Ratio Difference {kgWater/kgDryAir}
  HumidityRatioDifference,                !- Zone Latent Heating Design Supply Air Humidity Ratio Input Method
  ,                                       !- Zone Humidification Design Supply Air Humidity Ratio {kgWater/kgDryAir}
  0.005,                                  !- Zone Humidification Design Supply Air Humidity Ratio Difference {kgWater/kgDryAir}
  ,                                       !- Zone Humidistat Dehumidification Set Point Schedule Name
  ,                                       !- Zone Humidistat Humidification Set Point Schedule Name
  ,                                       !- Design Zone Air Distribution Effectiveness in Cooling Mode
  ,                                       !- Design Zone Air Distribution Effectiveness in Heating Mode
  ,                                       !- Design Zone Secondary Recirculation Fraction {dimensionless}
  ,                                       !- Design Minimum Zone Ventilation Efficiency {dimensionless}
  Coincident;                             !- Sizing Option

OS:ZoneHVAC:EquipmentList,
  {90ed76c5-886e-4a44-b176-31ea59a919a9}, !- Handle
  Zone HVAC Equipment List 1,             !- Name
  {45f1e0b5-de54-455b-a15f-4fff62c5c3c8}, !- Thermal Zone
  ,                                       !- Load Distribution Scheme
  {8ed2390c-4ab0-4aad-8e4f-e8c51572d02c}, !- Zone Equipment 1
  1,                                      !- Zone Equipment Cooling Sequence 1
  1,                                      !- Zone Equipment Heating or No-Load Sequence 1
  {240b68a0-f195-4ae8-9e42-4780e11b1444}, !- Zone Equipment Sequential Cooling Fraction Schedule Name 1
  {79ade2e6-0112-4722-b959-6fe2e5bee5f0}; !- Zone Equipment Sequential Heating Fraction Schedule Name 1

OS:AdditionalProperties,
  {8d73d594-a069-430f-b68b-00618e8b548f}, !- Handle
  {45f1e0b5-de54-455b-a15f-4fff62c5c3c8}, !- Object Name
  ObjectType,                             !- Feature Name 1
  String,                                 !- Feature Data Type 1
  conditioned space;                      !- Feature Value 1

OS:Space,
  {4db19759-f4bf-4d34-ae37-9a2d9e7f6b0a}, !- Handle
  conditioned space 1,                    !- Name
  ,                                       !- Space Type Name
  ,                                       !- Default Construction Set Name
  ,                                       !- Default Schedule Set Name
  ,                                       !- Direction of Relative North {deg}
  ,                                       !- X Origin {m}
  ,                                       !- Y Origin {m}
  ,                                       !- Z Origin {m}
  ,                                       !- Building Story Name
  {45f1e0b5-de54-455b-a15f-4fff62c5c3c8}, !- Thermal Zone Name
  ,                                       !- Part of Total Floor Area
  ,                                       !- Design Specification Outdoor Air Object Name
  ,                                       !- Building Unit Name
  692.06373070848;                        !- Volume {m3}

OS:Schedule:Ruleset,
  {b1ebc9ca-2ded-441a-ada0-68ba6354addc}, !- Handle
  heating setpoint,                       !- Name
  {bbcd9356-8fc9-4adf-8ed4-da059e2ed482}, !- Schedule Type Limits Name
  {0c250b69-a06d-4b89-8586-bb9e7de720b3}; !- Default Day Schedule Name

OS:Schedule:Day,
  {0c250b69-a06d-4b89-8586-bb9e7de720b3}, !- Handle
  heating setpoint default day,           !- Name
  {bbcd9356-8fc9-4adf-8ed4-da059e2ed482}, !- Schedule Type Limits Name
  ,                                       !- Interpolate to Timestep
  24,                                     !- Hour 1
  0,                                      !- Minute 1
  0;                                      !- Value Until Time 1

OS:Schedule:Rule,
  {15619256-425a-4aca-b28b-a29da716e00c}, !- Handle
  heating setpoint allday rule,           !- Name
  {b1ebc9ca-2ded-441a-ada0-68ba6354addc}, !- Schedule Ruleset Name
  0,                                      !- Rule Order
  {cbe3db50-b845-4d71-a387-9b4d74f09ddd}, !- Day Schedule Name
  Yes,                                    !- Apply Sunday
  Yes,                                    !- Apply Monday
  Yes,                                    !- Apply Tuesday
  Yes,                                    !- Apply Wednesday
  Yes,                                    !- Apply Thursday
  Yes,                                    !- Apply Friday
  Yes,                                    !- Apply Saturday
  DateRange,                              !- Date Specification Type
  1,                                      !- Start Month
  1,                                      !- Start Day
  12,                                     !- End Month
  31;                                     !- End Day

OS:Schedule:Day,
  {cbe3db50-b845-4d71-a387-9b4d74f09ddd}, !- Handle
  heating setpoint day,                   !- Name
  {bbcd9356-8fc9-4adf-8ed4-da059e2ed482}, !- Schedule Type Limits Name
  ,                                       !- Interpolate to Timestep
  24,                                     !- Hour 1
  0,                                      !- Minute 1
  20;                                     !- Value Until Time 1

OS:Schedule:Ruleset,
  {a2326298-4c48-4b3b-801c-1f3f0d548ce0}, !- Handle
  cooling setpoint,                       !- Name
  {bbcd9356-8fc9-4adf-8ed4-da059e2ed482}, !- Schedule Type Limits Name
  {85feeb79-e897-4657-90e6-b663737fcfe2}; !- Default Day Schedule Name

OS:Schedule:Day,
  {85feeb79-e897-4657-90e6-b663737fcfe2}, !- Handle
  cooling setpoint default day,           !- Name
  {bbcd9356-8fc9-4adf-8ed4-da059e2ed482}, !- Schedule Type Limits Name
  ,                                       !- Interpolate to Timestep
  24,                                     !- Hour 1
  0,                                      !- Minute 1
  0;                                      !- Value Until Time 1

OS:Schedule:Rule,
  {56abcfe2-1637-4b5b-ac5c-a8d1015a498d}, !- Handle
  cooling setpoint allday rule,           !- Name
  {a2326298-4c48-4b3b-801c-1f3f0d548ce0}, !- Schedule Ruleset Name
  0,                                      !- Rule Order
  {af0d96f8-6e2a-4568-86b0-dfe579232ca7}, !- Day Schedule Name
  Yes,                                    !- Apply Sunday
  Yes,                                    !- Apply Monday
  Yes,                                    !- Apply Tuesday
  Yes,                                    !- Apply Wednesday
  Yes,                                    !- Apply Thursday
  Yes,                                    !- Apply Friday
  Yes,                                    !- Apply Saturday
  DateRange,                              !- Date Specification Type
  1,                                      !- Start Month
  1,                                      !- Start Day
  12,                                     !- End Month
  31;                                     !- End Day

OS:Schedule:Day,
  {af0d96f8-6e2a-4568-86b0-dfe579232ca7}, !- Handle
  cooling setpoint day,                   !- Name
  {bbcd9356-8fc9-4adf-8ed4-da059e2ed482}, !- Schedule Type Limits Name
  ,                                       !- Interpolate to Timestep
  24,                                     !- Hour 1
  0,                                      !- Minute 1
  25.5555555555556;                       !- Value Until Time 1

OS:ThermostatSetpoint:DualSetpoint,
  {6cea9181-63ea-4175-a9b3-8bf6c0095f5e}, !- Handle
  conditioned space temperature setpoint, !- Name
  {b1ebc9ca-2ded-441a-ada0-68ba6354addc}, !- Heating Setpoint Temperature Schedule Name
  {a2326298-4c48-4b3b-801c-1f3f0d548ce0}, !- Cooling Setpoint Temperature Schedule Name
  0;                                      !- Temperature Difference Between Cutout And Setpoint {deltaC}

OS:ScheduleTypeLimits,
  {bbcd9356-8fc9-4adf-8ed4-da059e2ed482}, !- Handle
  Temperature,                            !- Name
  ,                                       !- Lower Limit Value
  ,                                       !- Upper Limit Value
  Continuous,                             !- Numeric Type
  Temperature;                            !- Unit Type

OS:Surface,
  {04a2ec9b-a00a-4f9e-97ee-31f05bc20836}, !- Handle
  Roof1,                                  !- Name
  RoofCeiling,                            !- Surface Type
  {5bccc37e-e9d0-4dcb-bdb1-718ac8702b96}, !- Construction Name
  {e7564f07-adec-42e1-9abe-614c3ced2b66}, !- Space Name
  Outdoors,                               !- Outside Boundary Condition
  ,                                       !- Outside Boundary Condition Object
  SunExposed,                             !- Sun Exposure
  WindExposed,                            !- Wind Exposure
  ,                                       !- View Factor to Ground
  ,                                       !- Number of Vertices
  -26.9397848849634, 58.0608691618865, 2.4384, !- X,Y,Z Vertex 1 {m}
  -26.9397848849634, 46.7946431136661, 8.0715130241102, !- X,Y,Z Vertex 2 {m}
  -14.3437612381136, 46.7946431136661, 8.0715130241102, !- X,Y,Z Vertex 3 {m}
  -14.3437612381136, 58.0608691618865, 2.4384; !- X,Y,Z Vertex 4 {m}

OS:AdditionalProperties,
  {4c674fdb-199c-4aef-8091-472ddf7ce57f}, !- Handle
  {04a2ec9b-a00a-4f9e-97ee-31f05bc20836}, !- Object Name
  Length,                                 !- Feature Name 1
  Double,                                 !- Feature Data Type 1
  41.325536899113608,                     !- Feature Value 1
  Width,                                  !- Feature Name 2
  Double,                                 !- Feature Data Type 2
  41.325536899113601,                     !- Feature Value 2
  Azimuth,                                !- Feature Name 3
  Integer,                                !- Feature Data Type 3
  0,                                      !- Feature Value 3
  Tilt,                                   !- Feature Name 4
  Double,                                 !- Feature Data Type 4
  0.5,                                    !- Feature Value 4
  SurfaceType,                            !- Feature Name 5
  String,                                 !- Feature Data Type 5
  Roof;                                   !- Feature Value 5

OS:ThermalZone,
  {fc18420d-2236-4954-af20-551989b9e5f0}, !- Handle
  attic - vented,                         !- Name
  1,                                      !- Multiplier
  ,                                       !- Ceiling Height {m}
  356.390921899745,                       !- Volume {m3}
  ,                                       !- Floor Area {m2}
  ,                                       !- Zone Inside Convection Algorithm
  ,                                       !- Zone Outside Convection Algorithm
  ,                                       !- Zone Conditioning Equipment List Name
  {e6ff425a-905c-455e-956e-9d36b654d8d2}, !- Zone Air Inlet Port List
  {9340f7fb-2ecb-466b-85cb-3127780a6fbb}, !- Zone Air Exhaust Port List
  {2f433c12-ccf5-467f-8e9c-56c8055d607e}, !- Zone Air Node Name
  {afd1182b-5758-4420-be52-d6aa2dbbd3fc}, !- Zone Return Air Port List
  ,                                       !- Primary Daylighting Control Name
  ,                                       !- Fraction of Zone Controlled by Primary Daylighting Control
  ,                                       !- Secondary Daylighting Control Name
  ,                                       !- Fraction of Zone Controlled by Secondary Daylighting Control
  ,                                       !- Illuminance Map Name
  ,                                       !- Group Rendering Name
  ,                                       !- Thermostat Name
  No;                                     !- Use Ideal Air Loads

OS:Node,
  {71766753-1e21-42f3-890a-c588a1a13555}, !- Handle
  Node 2,                                 !- Name
  {2f433c12-ccf5-467f-8e9c-56c8055d607e}, !- Inlet Port
  ;                                       !- Outlet Port

OS:Connection,
  {2f433c12-ccf5-467f-8e9c-56c8055d607e}, !- Handle
  {fc18420d-2236-4954-af20-551989b9e5f0}, !- Source Object
  11,                                     !- Outlet Port
  {71766753-1e21-42f3-890a-c588a1a13555}, !- Target Object
  2;                                      !- Inlet Port

OS:PortList,
  {e6ff425a-905c-455e-956e-9d36b654d8d2}, !- Handle
  {fc18420d-2236-4954-af20-551989b9e5f0}; !- HVAC Component

OS:PortList,
  {9340f7fb-2ecb-466b-85cb-3127780a6fbb}, !- Handle
  {fc18420d-2236-4954-af20-551989b9e5f0}; !- HVAC Component

OS:PortList,
  {afd1182b-5758-4420-be52-d6aa2dbbd3fc}, !- Handle
  {fc18420d-2236-4954-af20-551989b9e5f0}; !- HVAC Component

OS:Sizing:Zone,
  {ff1114bf-ad8a-49f1-a6f2-d766b1c7b045}, !- Handle
  {fc18420d-2236-4954-af20-551989b9e5f0}, !- Zone or ZoneList Name
  SupplyAirTemperature,                   !- Zone Cooling Design Supply Air Temperature Input Method
  14,                                     !- Zone Cooling Design Supply Air Temperature {C}
  11.11,                                  !- Zone Cooling Design Supply Air Temperature Difference {deltaC}
  SupplyAirTemperature,                   !- Zone Heating Design Supply Air Temperature Input Method
  40,                                     !- Zone Heating Design Supply Air Temperature {C}
  11.11,                                  !- Zone Heating Design Supply Air Temperature Difference {deltaC}
  0.0085,                                 !- Zone Cooling Design Supply Air Humidity Ratio {kg-H2O/kg-air}
  0.008,                                  !- Zone Heating Design Supply Air Humidity Ratio {kg-H2O/kg-air}
  ,                                       !- Zone Heating Sizing Factor
  ,                                       !- Zone Cooling Sizing Factor
  DesignDay,                              !- Cooling Design Air Flow Method
  ,                                       !- Cooling Design Air Flow Rate {m3/s}
  ,                                       !- Cooling Minimum Air Flow per Zone Floor Area {m3/s-m2}
  ,                                       !- Cooling Minimum Air Flow {m3/s}
  ,                                       !- Cooling Minimum Air Flow Fraction
  DesignDay,                              !- Heating Design Air Flow Method
  ,                                       !- Heating Design Air Flow Rate {m3/s}
  ,                                       !- Heating Maximum Air Flow per Zone Floor Area {m3/s-m2}
  ,                                       !- Heating Maximum Air Flow {m3/s}
  ,                                       !- Heating Maximum Air Flow Fraction
  No,                                     !- Account for Dedicated Outdoor Air System
  NeutralSupplyAir,                       !- Dedicated Outdoor Air System Control Strategy
  autosize,                               !- Dedicated Outdoor Air Low Setpoint Temperature for Design {C}
  autosize,                               !- Dedicated Outdoor Air High Setpoint Temperature for Design {C}
  Sensible Load Only No Latent Load,      !- Zone Load Sizing Method
  HumidityRatioDifference,                !- Zone Latent Cooling Design Supply Air Humidity Ratio Input Method
  ,                                       !- Zone Dehumidification Design Supply Air Humidity Ratio {kgWater/kgDryAir}
  0.005,                                  !- Zone Cooling Design Supply Air Humidity Ratio Difference {kgWater/kgDryAir}
  HumidityRatioDifference,                !- Zone Latent Heating Design Supply Air Humidity Ratio Input Method
  ,                                       !- Zone Humidification Design Supply Air Humidity Ratio {kgWater/kgDryAir}
  0.005,                                  !- Zone Humidification Design Supply Air Humidity Ratio Difference {kgWater/kgDryAir}
  ,                                       !- Zone Humidistat Dehumidification Set Point Schedule Name
  ,                                       !- Zone Humidistat Humidification Set Point Schedule Name
  ,                                       !- Design Zone Air Distribution Effectiveness in Cooling Mode
  ,                                       !- Design Zone Air Distribution Effectiveness in Heating Mode
  ,                                       !- Design Zone Secondary Recirculation Fraction {dimensionless}
  ,                                       !- Design Minimum Zone Ventilation Efficiency {dimensionless}
  Coincident;                             !- Sizing Option

OS:ZoneHVAC:EquipmentList,
  {de2c8a89-37f9-4c19-bb4f-0cba9ac25ea6}, !- Handle
  Zone HVAC Equipment List 2,             !- Name
  {fc18420d-2236-4954-af20-551989b9e5f0}; !- Thermal Zone

OS:AdditionalProperties,
  {6180bcce-3f45-4b82-ade4-1cae0a09f666}, !- Handle
  {fc18420d-2236-4954-af20-551989b9e5f0}, !- Object Name
  ObjectType,                             !- Feature Name 1
  String,                                 !- Feature Data Type 1
  attic - vented;                         !- Feature Value 1

OS:Space,
  {e7564f07-adec-42e1-9abe-614c3ced2b66}, !- Handle
  attic - vented 1,                       !- Name
  ,                                       !- Space Type Name
  ,                                       !- Default Construction Set Name
  ,                                       !- Default Schedule Set Name
  ,                                       !- Direction of Relative North {deg}
  ,                                       !- X Origin {m}
  ,                                       !- Y Origin {m}
  ,                                       !- Z Origin {m}
  ,                                       !- Building Story Name
  {fc18420d-2236-4954-af20-551989b9e5f0}, !- Thermal Zone Name
  ,                                       !- Part of Total Floor Area
  ,                                       !- Design Specification Outdoor Air Object Name
  ,                                       !- Building Unit Name
  356.390921899745;                       !- Volume {m3}

OS:Material,
  {e1f46363-87bb-45ee-8085-f933ae093458}, !- Handle
  asphalt or fiberglass shingles,         !- Name
  Rough,                                  !- Roughness
  0.00635,                                !- Thickness {m}
  0.162714,                               !- Conductivity {W/m-K}
  1121.4,                                 !- Density {kg/m3}
  1465.45,                                !- Specific Heat {J/kg-K}
  0.9,                                    !- Thermal Absorptance
  0.85,                                   !- Solar Absorptance