
OS:Version,
  {f85dc990-9f8a-4de7-9e4e-7fe7fec7e6cb}, !- Handle
  3.9.0;                                  !- Version Identifier

OS:SimulationControl,
  {5230b9c3-40a9-4a58-82ee-8e8a4ad3b34e}, !- Handle
  ,                                       !- Do Zone Sizing Calculation
  ,                                       !- Do System Sizing Calculation
  ,                                       !- Do Plant Sizing Calculation
  No;                                     !- Run Simulation for Sizing Periods

OS:Timestep,
  {4b59c80d-ce01-438e-b54a-b9a232457789}, !- Handle
  1;                                      !- Number of Timesteps per Hour

OS:ShadowCalculation,
  {f1186c21-fdcb-4629-809f-4b0defbf21d5}, !- Handle
  PolygonClipping,                        !- Shading Calculation Method
  ,                                       !- Shading Calculation Update Frequency Method
  20,                                     !- Shading Calculation Update Frequency
  200,                                    !- Maximum Figures in Shadow Overlap Calculations
  ,                                       !- Polygon Clipping Algorithm
  512,                                    !- Pixel Counting Resolution
  ,                                       !- Sky Diffuse Modeling Algorithm
  No,                                     !- Output External Shading Calculation Results
  No,                                     !- Disable Self-Shading Within Shading Zone Groups
  No;                                     !- Disable Self-Shading From Shading Zone Groups to Other Zones

OS:SurfaceConvectionAlgorithm:Outside,
  {677ca04b-be73-4505-829d-1eab5c1135e1}, !- Handle
  DOE-2;                                  !- Algorithm

OS:SurfaceConvectionAlgorithm:Inside,
  {8acc394b-e34d-42b0-9053-d53b46fac876}, !- Handle
  TARP;                                   !- Algorithm

OS:ZoneCapacitanceMultiplier:ResearchSpecial,
  {823a2111-d56a-42a7-83bd-c4b6e6eea7c5}, !- Handle
  7,                                      !- Temperature Capacity Multiplier
  15,                                     !- Humidity Capacity Multiplier
  ;                                       !- Carbon Dioxide Capacity Multiplier

OS:ConvergenceLimits,
  {da3db880-5655-409e-a47b-a3c2feb2ece4}, !- Handle
  0;                                      !- Minimum System Timestep {minutes}

OS:RunPeriod,
  {88f94673-f811-4a00-be9f-14ff03289f25}, !- Handle
  Run Period 1,                           !- Name
  1,                                      !- Begin Month
  1,                                      !- Begin Day of Month
  12,                                     !- End Month
  31,                                     !- End Day of Month
  ,                                       !- Use Weather File Holidays and Special Days
  ,                                       !- Use Weather File Daylight Saving Period
  ,                                       !- Apply Weekend Holiday Rule
  ,                                       !- Use Weather File Rain Indicators
  ,                                       !- Use Weather File Snow Indicators
  ;                                       !- Number of Times Runperiod to be Repeated

OS:PerformancePrecisionTradeoffs,
  {9a6c6ec0-3481-4393-bd61-ccfdd83f872b}, !- Handle
  ,                                       !- Use Coil Direct Solutions
  CarrollMRT;                             !- Zone Radiant Exchange Algorithm

OS:WeatherFile,
  {c91abf62-dd1e-4b37-a617-5045355e56a3}, !- Handle
  Buffalo Niagara Intl Ap,                !- City
  NY,                                     !- State Province Region
  USA,                                    !- Country
  TMY3,                                   !- Data Source
  725280,                                 !- WMO Number
  42.93,                                  !- Latitude {deg}
  -78.73,                                 !- Longitude {deg}
  -5,                                     !- Time Zone {hr}
  215,                                    !- Elevation {m}
  /Users/nmoore/github/urbanopt-example-geojson-project/example_project/weather/USA_NY_Buffalo-Greater.Buffalo.Intl.AP.725280_TMY3.epw, !- Url
  6B50E0FF,                               !- Checksum
  ,                                       !- Start Date Actual Year
  Sunday;                                 !- Start Day of Week

OS:YearDescription,
  {b8832e28-e49f-4d10-9b69-85f23d4a1164}, !- Handle
  2007,                                   !- Calendar Year
  ,                                       !- Day of Week for Start Day
  ;                                       !- Is Leap Year

OS:Site,
  {aa26918b-ca77-4c8c-b5a0-5e4154909a8f}, !- Handle
  Buffalo Niagara Intl Ap_NY,             !- Name
  42.93,                                  !- Latitude {deg}
  -78.73,                                 !- Longitude {deg}
  -5,                                     !- Time Zone {hr}
  215,                                    !- Elevation {m}
  Suburbs,                                !- Terrain
  Yes;                                    !- Keep Site Location Information

OS:RunPeriodControl:DaylightSavingTime,
  {fedbe755-b65e-4668-aad1-c041fd92cdf0}, !- Handle
  Mar 12,                                 !- Start Date
  Nov 5;                                  !- End Date

OS:Site:GroundTemperature:Shallow,
  {576269ce-a2b9-4f36-b89a-f2fbc4acde4a}, !- Handle
  4.30207395723828,                       !- January Surface Ground Temperature {C}
  2.29327249652502,                       !- February Surface Ground Temperature {C}
  2.13240047156047,                       !- March Surface Ground Temperature {C}
  3.08567940719286,                       !- April Surface Ground Temperature {C}
  6.91256312497526,                       !- May Surface Ground Temperature {C}
  10.7216195949507,                       !- June Surface Ground Temperature {C}
  14.0238679822574,                       !- July Surface Ground Temperature {C}
  16.1157611184724,                       !- August Surface Ground Temperature {C}
  16.2934789303462,                       !- September Surface Ground Temperature {C}
  14.5920754632847,                       !- October Surface Ground Temperature {C}
  11.374036348653,                        !- November Surface Ground Temperature {C}
  7.68182621661674;                       !- December Surface Ground Temperature {C}

OS:ThermalZone,
  {644d8c15-448c-4a96-8dd2-8eb0062b6437}, !- Handle
  conditioned space,                      !- Name
  1,                                      !- Multiplier
  ,                                       !- Ceiling Height {m}
  692.06373070848,                        !- Volume {m3}
  ,                                       !- Floor Area {m2}
  ,                                       !- Zone Inside Convection Algorithm
  ,                                       !- Zone Outside Convection Algorithm
  ,                                       !- Zone Conditioning Equipment List Name
  {134dd35d-bc4f-4bf2-9b78-c47578234cc7}, !- Zone Air Inlet Port List
  {5dc6abac-71b7-4aef-87ec-ab4befc5f6f2}, !- Zone Air Exhaust Port List
  {e0bc6ae7-4c2f-4e97-b6eb-b6e119515ad2}, !- Zone Air Node Name
  {d697bbd2-5066-4a76-b1ee-a2da4eaba20e}, !- Zone Return Air Port List
  ,                                       !- Primary Daylighting Control Name
  ,                                       !- Fraction of Zone Controlled by Primary Daylighting Control
  ,                                       !- Secondary Daylighting Control Name
  ,                                       !- Fraction of Zone Controlled by Secondary Daylighting Control
  ,                                       !- Illuminance Map Name
  ,                                       !- Group Rendering Name
  {64d1dfbd-8f79-4d44-b7d5-d856d8cf9f26}, !- Thermostat Name
  No;                                     !- Use Ideal Air Loads

OS:Node,
  {4e867c17-4fc4-4dd7-b257-1dc98f9c8e9c}, !- Handle
  Node 1,                                 !- Name
  {e0bc6ae7-4c2f-4e97-b6eb-b6e119515ad2}, !- Inlet Port
  ;                                       !- Outlet Port

OS:Connection,
  {e0bc6ae7-4c2f-4e97-b6eb-b6e119515ad2}, !- Handle
  {644d8c15-448c-4a96-8dd2-8eb0062b6437}, !- Source Object
  11,                                     !- Outlet Port
  {4e867c17-4fc4-4dd7-b257-1dc98f9c8e9c}, !- Target Object
  2;                                      !- Inlet Port

OS:PortList,
  {134dd35d-bc4f-4bf2-9b78-c47578234cc7}, !- Handle
  {644d8c15-448c-4a96-8dd2-8eb0062b6437}, !- HVAC Component
  {8465fb51-33de-4c92-b9b2-b8ab49fe2065}; !- Port 1

OS:PortList,
  {5dc6abac-71b7-4aef-87ec-ab4befc5f6f2}, !- Handle
  {644d8c15-448c-4a96-8dd2-8eb0062b6437}; !- HVAC Component

OS:PortList,
  {d697bbd2-5066-4a76-b1ee-a2da4eaba20e}, !- Handle
  {644d8c15-448c-4a96-8dd2-8eb0062b6437}, !- HVAC Component
  {5daa125d-1371-4a71-a346-8fd0d44f1ba2}; !- Port 1

OS:Sizing:Zone,
  {609c6558-6d49-4e85-b8a7-2b3724ccdda3}, !- Handle
  {644d8c15-448c-4a96-8dd2-8eb0062b6437}, !- Zone or ZoneList Name
  SupplyAirTemperature,                   !- Zone Cooling Design Supply Air Temperature Input Method
  14,                                     !- Zone Cooling Design Supply Air Temperature {C}
  11.11,                                  !- Zone Cooling Design Supply Air Temperature Difference {deltaC}
  SupplyAirTemperature,                   !- Zone Heating Design Supply Air Temperature Input Method
  40,                                     !- Zone Heating Design Supply Air Temperature {C}
  11.11,                                  !- Zone Heating Design Supply Air Temperature Difference {deltaC}
  0.0085,                                 !- Zone Cooling Design Supply Air Humidity Ratio {kg-H2O/kg-air}
  0.008,                                  !- Zone Heating Design Supply Air Humidity Ratio {kg-H2O/kg-air}
  ,                                       !- Zone Heating Sizing Factor
  ,                                       !- Zone Cooling Sizing Factor
  DesignDay,                              !- Cooling Design Air Flow Method
  ,                                       !- Cooling Design Air Flow Rate {m3/s}
  ,                                       !- Cooling Minimum Air Flow per Zone Floor Area {m3/s-m2}
  ,                                       !- Cooling Minimum Air Flow {m3/s}
  ,                                       !- Cooling Minimum Air Flow Fraction
  DesignDay,                              !- Heating Design Air Flow Method
  ,                                       !- Heating Design Air Flow Rate {m3/s}
  ,                                       !- Heating Maximum Air Flow per Zone Floor Area {m3/s-m2}
  ,                                       !- Heating Maximum Air Flow {m3/s}
  ,                                       !- Heating Maximum Air Flow Fraction
  No,                                     !- Account for Dedicated Outdoor Air System
  NeutralSupplyAir,                       !- Dedicated Outdoor Air System Control Strategy
  autosize,                               !- Dedicated Outdoor Air Low Setpoint Temperature for Design {C}
  autosize,                               !- Dedicated Outdoor Air High Setpoint Temperature for Design {C}
  Sensible Load Only No Latent Load,      !- Zone Load Sizing Method
  HumidityRatioDifference,                !- Zone Latent Cooling Design Supply Air Humidity Ratio Input Method
  ,                                       !- Zone Dehumidification Design Supply Air Humidity Ratio {kgWater/kgDryAir}
  0.005,                                  !- Zone Cooling Design Supply Air Humidity Ratio Difference {kgWater/kgDryAir}
  HumidityRatioDifference,                !- Zone Latent Heating Design Supply Air Humidity Ratio Input Method
  ,                                       !- Zone Humidification Design Supply Air Humidity Ratio {kgWater/kgDryAir}
  0.005,                                  !- Zone Humidification Design Supply Air Humidity Ratio Difference {kgWater/kgDryAir}
  ,                                       !- Zone Humidistat Dehumidification Set Point Schedule Name
  ,                                       !- Zone Humidistat Humidification Set Point Schedule Name
  ,                                       !- Design Zone Air Distribution Effectiveness in Cooling Mode
  ,                                       !- Design Zone Air Distribution Effectiveness in Heating Mode
  ,                                       !- Design Zone Secondary Recirculation Fraction {dimensionless}
  ,                                       !- Design Minimum Zone Ventilation Efficiency {dimensionless}
  Coincident;                             !- Sizing Option

OS:ZoneHVAC:EquipmentList,
  {ef72f339-a727-402f-9524-0b8ada5d4bf4}, !- Handle
  Zone HVAC Equipment List 1,             !- Name
  {644d8c15-448c-4a96-8dd2-8eb0062b6437}, !- Thermal Zone
  ,                                       !- Load Distribution Scheme
  {da2dad57-27b9-4ab2-b0a8-e3f56d10f0a9}, !- Zone Equipment 1
  1,                                      !- Zone Equipment Cooling Sequence 1
  1,                                      !- Zone Equipment Heating or No-Load Sequence 1
  {e5089235-9b35-46ba-9af5-29c37ec41d5b}, !- Zone Equipment Sequential Cooling Fraction Schedule Name 1
  {655d392e-561a-4c7e-a9d9-88c29ee111ae}; !- Zone Equipment Sequential Heating Fraction Schedule Name 1

OS:AdditionalProperties,
  {4962366f-6a71-4a50-b8f7-0ef83392b40d}, !- Handle
  {644d8c15-448c-4a96-8dd2-8eb0062b6437}, !- Object Name
  ObjectType,                             !- Feature Name 1
  String,                                 !- Feature Data Type 1
  conditioned space;                      !- Feature Value 1

OS:Space,
  {ba9127bb-3a61-4ea5-9dc1-8a75836d63ad}, !- Handle
  conditioned space 1,                    !- Name
  ,                                       !- Space Type Name
  ,                                       !- Default Construction Set Name
  ,                                       !- Default Schedule Set Name
  ,                                       !- Direction of Relative North {deg}
  ,                                       !- X Origin {m}
  ,                                       !- Y Origin {m}
  ,                                       !- Z Origin {m}
  ,                                       !- Building Story Name
  {644d8c15-448c-4a96-8dd2-8eb0062b6437}, !- Thermal Zone Name
  ,                                       !- Part of Total Floor Area
  ,                                       !- Design Specification Outdoor Air Object Name
  ,                                       !- Building Unit Name
  692.06373070848;                        !- Volume {m3}

OS:Schedule:Ruleset,
  {bfbf723a-d376-4418-add7-3c176769ccaa}, !- Handle
  heating setpoint,                       !- Name
  {a24bc3d6-a00c-4db7-a0a3-1106aa5d6078}, !- Schedule Type Limits Name
  {62179390-4b78-4301-aea8-8aa67831f06e}; !- Default Day Schedule Name

OS:Schedule:Day,
  {62179390-4b78-4301-aea8-8aa67831f06e}, !- Handle
  heating setpoint default day,           !- Name
  {a24bc3d6-a00c-4db7-a0a3-1106aa5d6078}, !- Schedule Type Limits Name
  ,                                       !- Interpolate to Timestep
  24,                                     !- Hour 1
  0,                                      !- Minute 1
  0;                                      !- Value Until Time 1

OS:Schedule:Rule,
  {708d7f4c-2b4f-4dba-a17d-302908b5e59a}, !- Handle
  heating setpoint allday rule,           !- Name
  {bfbf723a-d376-4418-add7-3c176769ccaa}, !- Schedule Ruleset Name
  0,                                      !- Rule Order
  {15430236-0876-452d-9dcd-84c71c58f86d}, !- Day Schedule Name
  Yes,                                    !- Apply Sunday
  Yes,                                    !- Apply Monday
  Yes,                                    !- Apply Tuesday
  Yes,                                    !- Apply Wednesday
  Yes,                                    !- Apply Thursday
  Yes,                                    !- Apply Friday
  Yes,                                    !- Apply Saturday
  DateRange,                              !- Date Specification Type
  1,                                      !- Start Month
  1,                                      !- Start Day
  12,                                     !- End Month
  31;                                     !- End Day

OS:Schedule:Day,
  {15430236-0876-452d-9dcd-84c71c58f86d}, !- Handle
  heating setpoint day,                   !- Name
  {a24bc3d6-a00c-4db7-a0a3-1106aa5d6078}, !- Schedule Type Limits Name
  ,                                       !- Interpolate to Timestep
  24,                                     !- Hour 1
  0,                                      !- Minute 1
  20;                                     !- Value Until Time 1

OS:Schedule:Ruleset,
  {58c03efd-fa5d-4fd1-804c-341fb59cce1a}, !- Handle
  cooling setpoint,                       !- Name
  {a24bc3d6-a00c-4db7-a0a3-1106aa5d6078}, !- Schedule Type Limits Name
  {2ca50eeb-4b1c-4083-81a6-4f02ea85bfa6}; !- Default Day Schedule Name

OS:Schedule:Day,
  {2ca50eeb-4b1c-4083-81a6-4f02ea85bfa6}, !- Handle
  cooling setpoint default day,           !- Name
  {a24bc3d6-a00c-4db7-a0a3-1106aa5d6078}, !- Schedule Type Limits Name
  ,                                       !- Interpolate to Timestep
  24,                                     !- Hour 1
  0,                                      !- Minute 1
  0;                                      !- Value Until Time 1

OS:Schedule:Rule,
  {244e4b84-e666-4d16-8697-ed0b5742f17f}, !- Handle
  cooling setpoint allday rule,           !- Name
  {58c03efd-fa5d-4fd1-804c-341fb59cce1a}, !- Schedule Ruleset Name
  0,                                      !- Rule Order
  {b11fd9fd-6bc6-4bf2-bac4-84de3e182f77}, !- Day Schedule Name
  Yes,                                    !- Apply Sunday
  Yes,                                    !- Apply Monday
  Yes,                                    !- Apply Tuesday
  Yes,                                    !- Apply Wednesday
  Yes,                                    !- Apply Thursday
  Yes,                                    !- Apply Friday
  Yes,                                    !- Apply Saturday
  DateRange,                              !- Date Specification Type
  1,                                      !- Start Month
  1,                                      !- Start Day
  12,                                     !- End Month
  31;                                     !- End Day

OS:Schedule:Day,
  {b11fd9fd-6bc6-4bf2-bac4-84de3e182f77}, !- Handle
  cooling setpoint day,                   !- Name
  {a24bc3d6-a00c-4db7-a0a3-1106aa5d6078}, !- Schedule Type Limits Name
  ,                                       !- Interpolate to Timestep
  24,                                     !- Hour 1
  0,                                      !- Minute 1
  25.5555555555556;                       !- Value Until Time 1

OS:ThermostatSetpoint:DualSetpoint,
  {64d1dfbd-8f79-4d44-b7d5-d856d8cf9f26}, !- Handle
  conditioned space temperature setpoint, !- Name
  {bfbf723a-d376-4418-add7-3c176769ccaa}, !- Heating Setpoint Temperature Schedule Name
  {58c03efd-fa5d-4fd1-804c-341fb59cce1a}, !- Cooling Setpoint Temperature Schedule Name
  0;                                      !- Temperature Difference Between Cutout And Setpoint {deltaC}

OS:ScheduleTypeLimits,
  {a24bc3d6-a00c-4db7-a0a3-1106aa5d6078}, !- Handle
  Temperature,                            !- Name
  ,                                       !- Lower Limit Value
  ,                                       !- Upper Limit Value
  Continuous,                             !- Numeric Type
  Temperature;                            !- Unit Type

OS:Surface,
  {5fdd5d8d-d9f2-449b-a618-63097ec52f81}, !- Handle
  Roof1,                                  !- Name
  RoofCeiling,                            !- Surface Type
  {d270e5e9-ed28-430f-a6d2-13e767aedce3}, !- Construction Name
  {eae9bd2f-5599-40cd-90a6-dbcb5a611c70}, !- Space Name
  Outdoors,                               !- Outside Boundary Condition
  ,                                       !- Outside Boundary Condition Object
  SunExposed,                             !- Sun Exposure
  WindExposed,                            !- Wind Exposure
  ,                                       !- View Factor to Ground
  ,                                       !- Number of Vertices
  -26.9397848849634, 58.0608691618865, 2.4384, !- X,Y,Z Vertex 1 {m}
  -26.9397848849634, 46.7946431136661, 8.0715130241102, !- X,Y,Z Vertex 2 {m}
  -14.3437612381136, 46.7946431136661, 8.0715130241102, !- X,Y,Z Vertex 3 {m}
  -14.3437612381136, 58.0608691618865, 2.4384; !- X,Y,Z Vertex 4 {m}

OS:AdditionalProperties,
  {6df62f01-d685-4f11-9ed2-8d247a4f683c}, !- Handle
  {5fdd5d8d-d9f2-449b-a618-63097ec52f81}, !- Object Name
  Length,                                 !- Feature Name 1
  Double,                                 !- Feature Data Type 1
  41.325536899113608,                     !- Feature Value 1
  Width,                                  !- Feature Name 2
  Double,                                 !- Feature Data Type 2
  41.325536899113601,                     !- Feature Value 2
  Azimuth,                                !- Feature Name 3
  Integer,                                !- Feature Data Type 3
  0,                                      !- Feature Value 3
  Tilt,                                   !- Feature Name 4
  Double,                                 !- Feature Data Type 4
  0.5,                                    !- Feature Value 4
  SurfaceType,                            !- Feature Name 5
  String,                                 !- Feature Data Type 5
  Roof;                                   !- Feature Value 5

OS:ThermalZone,
  {9eb27ab7-6280-4c38-85a0-1273d7de50ef}, !- Handle
  attic - vented,                         !- Name
  1,                                      !- Multiplier
  ,                                       !- Ceiling Height {m}
  356.389957095237,                       !- Volume {m3}
  ,                                       !- Floor Area {m2}
  ,                                       !- Zone Inside Convection Algorithm
  ,                                       !- Zone Outside Convection Algorithm
  ,                                       !- Zone Conditioning Equipment List Name
  {0d0acba8-dc59-4eab-ae21-542c4e0d40d0}, !- Zone Air Inlet Port List
  {a94bc59d-23c2-466b-9742-e27444e14eb2}, !- Zone Air Exhaust Port List
  {0a15dc67-2c17-4397-a7e5-8e482a19d913}, !- Zone Air Node Name
  {5f9a66b6-995d-485b-b681-cdd0ade00cfb}, !- Zone Return Air Port List
  ,                                       !- Primary Daylighting Control Name
  ,                                       !- Fraction of Zone Controlled by Primary Daylighting Control
  ,                                       !- Secondary Daylighting Control Name
  ,                                       !- Fraction of Zone Controlled by Secondary Daylighting Control
  ,                                       !- Illuminance Map Name
  ,                                       !- Group Rendering Name
  ,                                       !- Thermostat Name
  No;                                     !- Use Ideal Air Loads

OS:Node,
  {00ef9b20-1b32-4baf-8838-74cf00ab1554}, !- Handle
  Node 2,                                 !- Name
  {0a15dc67-2c17-4397-a7e5-8e482a19d913}, !- Inlet Port
  ;                                       !- Outlet Port

OS:Connection,
  {0a15dc67-2c17-4397-a7e5-8e482a19d913}, !- Handle
  {9eb27ab7-6280-4c38-85a0-1273d7de50ef}, !- Source Object
  11,                                     !- Outlet Port
  {00ef9b20-1b32-4baf-8838-74cf00ab1554}, !- Target Object
  2;                                      !- Inlet Port

OS:PortList,
  {0d0acba8-dc59-4eab-ae21-542c4e0d40d0}, !- Handle
  {9eb27ab7-6280-4c38-85a0-1273d7de50ef}; !- HVAC Component

OS:PortList,
  {a94bc59d-23c2-466b-9742-e27444e14eb2}, !- Handle
  {9eb27ab7-6280-4c38-85a0-1273d7de50ef}; !- HVAC Component

OS:PortList,
  {5f9a66b6-995d-485b-b681-cdd0ade00cfb}, !- Handle
  {9eb27ab7-6280-4c38-85a0-1273d7de50ef}; !- HVAC Component

OS:Sizing:Zone,
  {a258129c-795a-45b4-8445-012fd435ae15}, !- Handle
  {9eb27ab7-6280-4c38-85a0-1273d7de50ef}, !- Zone or ZoneList Name
  SupplyAirTemperature,                   !- Zone Cooling Design Supply Air Temperature Input Method
  14,                                     !- Zone Cooling Design Supply Air Temperature {C}
  11.11,                                  !- Zone Cooling Design Supply Air Temperature Difference {deltaC}
  SupplyAirTemperature,                   !- Zone Heating Design Supply Air Temperature Input Method
  40,                                     !- Zone Heating Design Supply Air Temperature {C}
  11.11,                                  !- Zone Heating Design Supply Air Temperature Difference {deltaC}
  0.0085,                                 !- Zone Cooling Design Supply Air Humidity Ratio {kg-H2O/kg-air}
  0.008,                                  !- Zone Heating Design Supply Air Humidity Ratio {kg-H2O/kg-air}
  ,                                       !- Zone Heating Sizing Factor
  ,                                       !- Zone Cooling Sizing Factor
  DesignDay,                              !- Cooling Design Air Flow Method
  ,                                       !- Cooling Design Air Flow Rate {m3/s}
  ,                                       !- Cooling Minimum Air Flow per Zone Floor Area {m3/s-m2}
  ,                                       !- Cooling Minimum Air Flow {m3/s}
  ,                                       !- Cooling Minimum Air Flow Fraction
  DesignDay,                              !- Heating Design Air Flow Method
  ,                                       !- Heating Design Air Flow Rate {m3/s}
  ,                                       !- Heating Maximum Air Flow per Zone Floor Area {m3/s-m2}
  ,                                       !- Heating Maximum Air Flow {m3/s}
  ,                                       !- Heating Maximum Air Flow Fraction
  No,                                     !- Account for Dedicated Outdoor Air System
  NeutralSupplyAir,                       !- Dedicated Outdoor Air System Control Strategy
  autosize,                               !- Dedicated Outdoor Air Low Setpoint Temperature for Design {C}
  autosize,                               !- Dedicated Outdoor Air High Setpoint Temperature for Design {C}
  Sensible Load Only No Latent Load,      !- Zone Load Sizing Method
  HumidityRatioDifference,                !- Zone Latent Cooling Design Supply Air Humidity Ratio Input Method
  ,                                       !- Zone Dehumidification Design Supply Air Humidity Ratio {kgWater/kgDryAir}
  0.005,                                  !- Zone Cooling Design Supply Air Humidity Ratio Difference {kgWater/kgDryAir}
  HumidityRatioDifference,                !- Zone Latent Heating Design Supply Air Humidity Ratio Input Method
  ,                                       !- Zone Humidification Design Supply Air Humidity Ratio {kgWater/kgDryAir}
  0.005,                                  !- Zone Humidification Design Supply Air Humidity Ratio Difference {kgWater/kgDryAir}
  ,                                       !- Zone Humidistat Dehumidification Set Point Schedule Name
  ,                                       !- Zone Humidistat Humidification Set Point Schedule Name
  ,                                       !- Design Zone Air Distribution Effectiveness in Cooling Mode
  ,                                       !- Design Zone Air Distribution Effectiveness in Heating Mode
  ,                                       !- Design Zone Secondary Recirculation Fraction {dimensionless}
  ,                                       !- Design Minimum Zone Ventilation Efficiency {dimensionless}
  Coincident;                             !- Sizing Option

OS:ZoneHVAC:EquipmentList,
  {35f0254a-1c01-4ff9-9ae1-6e37da6d6b9f}, !- Handle
  Zone HVAC Equipment List 2,             !- Name
  {9eb27ab7-6280-4c38-85a0-1273d7de50ef}; !- Thermal Zone

OS:AdditionalProperties,
  {cd659b2a-be1b-446a-9e3e-bf0db3dc3fed}, !- Handle
  {9eb27ab7-6280-4c38-85a0-1273d7de50ef}, !- Object Name
  ObjectType,                             !- Feature Name 1
  String,                                 !- Feature Data Type 1
  attic - vented;                         !- Feature Value 1

OS:Space,
  {eae9bd2f-5599-40cd-90a6-dbcb5a611c70}, !- Handle
  attic - vented 1,                       !- Name
  ,                                       !- Space Type Name
  ,                                       !- Default Construction Set Name
  ,                                       !- Default Schedule Set Name
  ,                                       !- Direction of Relative North {deg}
  ,                                       !- X Origin {m}
  ,                                       !- Y Origin {m}
  ,                                       !- Z Origin {m}
  ,                                       !- Building Story Name
  {9eb27ab7-6280-4c38-85a0-1273d7de50ef}, !- Thermal Zone Name
  ,                                       !- Part of Total Floor Area
  ,                                       !- Design Specification Outdoor Air Object Name
  ,                                       !- Building Unit Name
  356.389957095237;                       !- Volume {m3}

OS:Material,
  {3f0dc9d0-b7e3-40a5-b8b9-eace45f7e196}, !- Handle
  asphalt or fiberglass shingles,         !- Name
  Rough,                                  !- Roughness
  0.00635,                                !- Thickness {m}
  0.162714,                               !- Conductivity {W/m-K}
  1121.4,                                 !- Density {kg/m3}
  1465.45,                                !- Specific Heat {J/kg-K}
  0.9,                                    !- Thermal Absorptance
  0.85,                                   !- Solar Absorptance