
OS:Version,
  {1ebb1095-be71-476c-98c1-70b5f6bf7ecb}, !- Handle
  3.9.0;                                  !- Version Identifier

OS:SimulationControl,
  {bf40b368-3e58-4066-a1ca-33cd3c8eb8c3}, !- Handle
  ,                                       !- Do Zone Sizing Calculation
  ,                                       !- Do System Sizing Calculation
  ,                                       !- Do Plant Sizing Calculation
  No;                                     !- Run Simulation for Sizing Periods

OS:Timestep,
  {0c2bbf26-2ea7-4b80-90a4-65e959db0536}, !- Handle
  1;                                      !- Number of Timesteps per Hour

OS:ShadowCalculation,
  {7f014be1-a800-4669-b0e0-073b1635ea78}, !- Handle
  PolygonClipping,                        !- Shading Calculation Method
  ,                                       !- Shading Calculation Update Frequency Method
  20,                                     !- Shading Calculation Update Frequency
  200,                                    !- Maximum Figures in Shadow Overlap Calculations
  ,                                       !- Polygon Clipping Algorithm
  512,                                    !- Pixel Counting Resolution
  ,                                       !- Sky Diffuse Modeling Algorithm
  No,                                     !- Output External Shading Calculation Results
  No,                                     !- Disable Self-Shading Within Shading Zone Groups
  No;                                     !- Disable Self-Shading From Shading Zone Groups to Other Zones

OS:SurfaceConvectionAlgorithm:Outside,
  {aa383bb4-4d59-4859-8bce-ef94ee543f68}, !- Handle
  DOE-2;                                  !- Algorithm

OS:SurfaceConvectionAlgorithm:Inside,
  {c0f80baa-df98-4634-b263-dc7880d60dbb}, !- Handle
  TARP;                                   !- Algorithm

OS:ZoneCapacitanceMultiplier:ResearchSpecial,
  {bb366ee3-542c-42a9-ac77-82d796e847da}, !- Handle
  7,                                      !- Temperature Capacity Multiplier
  15,                                     !- Humidity Capacity Multiplier
  ;                                       !- Carbon Dioxide Capacity Multiplier

OS:ConvergenceLimits,
  {5df2218f-69bd-432d-bae3-d8d880bcb2d2}, !- Handle
  0;                                      !- Minimum System Timestep {minutes}

OS:RunPeriod,
  {664a71bd-2cdd-4ec7-984e-a48b005adcee}, !- Handle
  Run Period 1,                           !- Name
  1,                                      !- Begin Month
  1,                                      !- Begin Day of Month
  12,                                     !- End Month
  31,                                     !- End Day of Month
  ,                                       !- Use Weather File Holidays and Special Days
  ,                                       !- Use Weather File Daylight Saving Period
  ,                                       !- Apply Weekend Holiday Rule
  ,                                       !- Use Weather File Rain Indicators
  ,                                       !- Use Weather File Snow Indicators
  ;                                       !- Number of Times Runperiod to be Repeated

OS:PerformancePrecisionTradeoffs,
  {52d5b04c-cea4-4de3-adfc-1597617c91a4}, !- Handle
  ,                                       !- Use Coil Direct Solutions
  CarrollMRT;                             !- Zone Radiant Exchange Algorithm

OS:WeatherFile,
  {3b085791-7fd9-4c18-8912-290baa3d3f21}, !- Handle
  Buffalo Niagara Intl Ap,                !- City
  NY,                                     !- State Province Region
  USA,                                    !- Country
  TMY3,                                   !- Data Source
  725280,                                 !- WMO Number
  42.93,                                  !- Latitude {deg}
  -78.73,                                 !- Longitude {deg}
  -5,                                     !- Time Zone {hr}
  215,                                    !- Elevation {m}
  /Users/nmoore/github/urbanopt-example-geojson-project/example_project/weather/USA_NY_Buffalo-Greater.Buffalo.Intl.AP.725280_TMY3.epw, !- Url
  6B50E0FF,                               !- Checksum
  ,                                       !- Start Date Actual Year
  Sunday;                                 !- Start Day of Week

OS:YearDescription,
  {3040937b-f470-4252-87c5-73022afa6236}, !- Handle
  2007,                                   !- Calendar Year
  ,                                       !- Day of Week for Start Day
  ;                                       !- Is Leap Year

OS:Site,
  {a879d6c2-ae30-4fe7-8e86-75f80e662f34}, !- Handle
  Buffalo Niagara Intl Ap_NY,             !- Name
  42.93,                                  !- Latitude {deg}
  -78.73,                                 !- Longitude {deg}
  -5,                                     !- Time Zone {hr}
  215,                                    !- Elevation {m}
  Suburbs,                                !- Terrain
  Yes;                                    !- Keep Site Location Information

OS:RunPeriodControl:DaylightSavingTime,
  {3fc3010d-f882-48a3-88d4-3d90b372bd56}, !- Handle
  Mar 12,                                 !- Start Date
  Nov 5;                                  !- End Date

OS:Site:GroundTemperature:Shallow,
  {a7ea1ffb-62e1-4a85-889a-5c311748b8d9}, !- Handle
  4.30207395723828,                       !- January Surface Ground Temperature {C}
  2.29327249652502,                       !- February Surface Ground Temperature {C}
  2.13240047156047,                       !- March Surface Ground Temperature {C}
  3.08567940719286,                       !- April Surface Ground Temperature {C}
  6.91256312497526,                       !- May Surface Ground Temperature {C}
  10.7216195949507,                       !- June Surface Ground Temperature {C}
  14.0238679822574,                       !- July Surface Ground Temperature {C}
  16.1157611184724,                       !- August Surface Ground Temperature {C}
  16.2934789303462,                       !- September Surface Ground Temperature {C}
  14.5920754632847,                       !- October Surface Ground Temperature {C}
  11.374036348653,                        !- November Surface Ground Temperature {C}
  7.68182621661674;                       !- December Surface Ground Temperature {C}

OS:ThermalZone,
  {d32572a1-557a-4191-bede-7ecba6810455}, !- Handle
  conditioned space,                      !- Name
  1,                                      !- Multiplier
  ,                                       !- Ceiling Height {m}
  692.06373070848,                        !- Volume {m3}
  ,                                       !- Floor Area {m2}
  ,                                       !- Zone Inside Convection Algorithm
  ,                                       !- Zone Outside Convection Algorithm
  ,                                       !- Zone Conditioning Equipment List Name
  {049ca981-c8a2-4801-b267-ea06d38489d9}, !- Zone Air Inlet Port List
  {4523a62a-9612-40fd-b801-405b03139a3c}, !- Zone Air Exhaust Port List
  {136c5301-8f60-47a2-841b-9a131a494401}, !- Zone Air Node Name
  {dc9523fb-193a-4fb0-894d-bc390c5548aa}, !- Zone Return Air Port List
  ,                                       !- Primary Daylighting Control Name
  ,                                       !- Fraction of Zone Controlled by Primary Daylighting Control
  ,                                       !- Secondary Daylighting Control Name
  ,                                       !- Fraction of Zone Controlled by Secondary Daylighting Control
  ,                                       !- Illuminance Map Name
  ,                                       !- Group Rendering Name
  {21868b77-d77e-4823-9e17-300d7f89146b}, !- Thermostat Name
  No;                                     !- Use Ideal Air Loads

OS:Node,
  {7dfb902e-eff6-4447-aa06-0cb9e5e3b95e}, !- Handle
  Node 1,                                 !- Name
  {136c5301-8f60-47a2-841b-9a131a494401}, !- Inlet Port
  ;                                       !- Outlet Port

OS:Connection,
  {136c5301-8f60-47a2-841b-9a131a494401}, !- Handle
  {d32572a1-557a-4191-bede-7ecba6810455}, !- Source Object
  11,                                     !- Outlet Port
  {7dfb902e-eff6-4447-aa06-0cb9e5e3b95e}, !- Target Object
  2;                                      !- Inlet Port

OS:PortList,
  {049ca981-c8a2-4801-b267-ea06d38489d9}, !- Handle
  {d32572a1-557a-4191-bede-7ecba6810455}, !- HVAC Component
  {92ce8838-37a8-415d-8a09-33c71685bae9}; !- Port 1

OS:PortList,
  {4523a62a-9612-40fd-b801-405b03139a3c}, !- Handle
  {d32572a1-557a-4191-bede-7ecba6810455}; !- HVAC Component

OS:PortList,
  {dc9523fb-193a-4fb0-894d-bc390c5548aa}, !- Handle
  {d32572a1-557a-4191-bede-7ecba6810455}, !- HVAC Component
  {9a473687-1ab8-4b90-8b7a-71014e9b9f1c}; !- Port 1

OS:Sizing:Zone,
  {0e86b771-2c37-4c5a-b925-c8d16e64730d}, !- Handle
  {d32572a1-557a-4191-bede-7ecba6810455}, !- Zone or ZoneList Name
  SupplyAirTemperature,                   !- Zone Cooling Design Supply Air Temperature Input Method
  14,                                     !- Zone Cooling Design Supply Air Temperature {C}
  11.11,                                  !- Zone Cooling Design Supply Air Temperature Difference {deltaC}
  SupplyAirTemperature,                   !- Zone Heating Design Supply Air Temperature Input Method
  40,                                     !- Zone Heating Design Supply Air Temperature {C}
  11.11,                                  !- Zone Heating Design Supply Air Temperature Difference {deltaC}
  0.0085,                                 !- Zone Cooling Design Supply Air Humidity Ratio {kg-H2O/kg-air}
  0.008,                                  !- Zone Heating Design Supply Air Humidity Ratio {kg-H2O/kg-air}
  ,                                       !- Zone Heating Sizing Factor
  ,                                       !- Zone Cooling Sizing Factor
  DesignDay,                              !- Cooling Design Air Flow Method
  ,                                       !- Cooling Design Air Flow Rate {m3/s}
  ,                                       !- Cooling Minimum Air Flow per Zone Floor Area {m3/s-m2}
  ,                                       !- Cooling Minimum Air Flow {m3/s}
  ,                                       !- Cooling Minimum Air Flow Fraction
  DesignDay,                              !- Heating Design Air Flow Method
  ,                                       !- Heating Design Air Flow Rate {m3/s}
  ,                                       !- Heating Maximum Air Flow per Zone Floor Area {m3/s-m2}
  ,                                       !- Heating Maximum Air Flow {m3/s}
  ,                                       !- Heating Maximum Air Flow Fraction
  No,                                     !- Account for Dedicated Outdoor Air System
  NeutralSupplyAir,                       !- Dedicated Outdoor Air System Control Strategy
  autosize,                               !- Dedicated Outdoor Air Low Setpoint Temperature for Design {C}
  autosize,                               !- Dedicated Outdoor Air High Setpoint Temperature for Design {C}
  Sensible Load Only No Latent Load,      !- Zone Load Sizing Method
  HumidityRatioDifference,                !- Zone Latent Cooling Design Supply Air Humidity Ratio Input Method
  ,                                       !- Zone Dehumidification Design Supply Air Humidity Ratio {kgWater/kgDryAir}
  0.005,                                  !- Zone Cooling Design Supply Air Humidity Ratio Difference {kgWater/kgDryAir}
  HumidityRatioDifference,                !- Zone Latent Heating Design Supply Air Humidity Ratio Input Method
  ,                                       !- Zone Humidification Design Supply Air Humidity Ratio {kgWater/kgDryAir}
  0.005,                                  !- Zone Humidification Design Supply Air Humidity Ratio Difference {kgWater/kgDryAir}
  ,                                       !- Zone Humidistat Dehumidification Set Point Schedule Name
  ,                                       !- Zone Humidistat Humidification Set Point Schedule Name
  ,                                       !- Design Zone Air Distribution Effectiveness in Cooling Mode
  ,                                       !- Design Zone Air Distribution Effectiveness in Heating Mode
  ,                                       !- Design Zone Secondary Recirculation Fraction {dimensionless}
  ,                                       !- Design Minimum Zone Ventilation Efficiency {dimensionless}
  Coincident;                             !- Sizing Option

OS:ZoneHVAC:EquipmentList,
  {782d478c-7770-4918-8b05-d3a7ad8e1c3c}, !- Handle
  Zone HVAC Equipment List 1,             !- Name
  {d32572a1-557a-4191-bede-7ecba6810455}, !- Thermal Zone
  ,                                       !- Load Distribution Scheme
  {832512d7-006f-4ca6-ae6b-4c1673397379}, !- Zone Equipment 1
  1,                                      !- Zone Equipment Cooling Sequence 1
  1,                                      !- Zone Equipment Heating or No-Load Sequence 1
  {acc1401e-757e-40c6-bbf9-0f55991cbb8e}, !- Zone Equipment Sequential Cooling Fraction Schedule Name 1
  {b1471213-bf01-4319-8520-5775fc19185e}, !- Zone Equipment Sequential Heating Fraction Schedule Name 1
  {c4a5fc91-baf9-404c-8f9f-a7bd97b6ec5a}, !- Zone Equipment 2
  2,                                      !- Zone Equipment Cooling Sequence 2
  2,                                      !- Zone Equipment Heating or No-Load Sequence 2
  {1d3363ec-898a-4795-b789-7c717dd2c8d5}, !- Zone Equipment Sequential Cooling Fraction Schedule Name 2
  {ebb1e8af-939d-49f7-8ac8-d17f4f457bf0}; !- Zone Equipment Sequential Heating Fraction Schedule Name 2

OS:AdditionalProperties,
  {480eb09a-e16e-48f7-938b-6fca8f182891}, !- Handle
  {d32572a1-557a-4191-bede-7ecba6810455}, !- Object Name
  ObjectType,                             !- Feature Name 1
  String,                                 !- Feature Data Type 1
  conditioned space;                      !- Feature Value 1

OS:Space,
  {0039030e-10f1-4d79-ad5a-45bf3b5e6046}, !- Handle
  conditioned space 1,                    !- Name
  ,                                       !- Space Type Name
  ,                                       !- Default Construction Set Name
  ,                                       !- Default Schedule Set Name
  ,                                       !- Direction of Relative North {deg}
  ,                                       !- X Origin {m}
  ,                                       !- Y Origin {m}
  ,                                       !- Z Origin {m}
  ,                                       !- Building Story Name
  {d32572a1-557a-4191-bede-7ecba6810455}, !- Thermal Zone Name
  ,                                       !- Part of Total Floor Area
  ,                                       !- Design Specification Outdoor Air Object Name
  ,                                       !- Building Unit Name
  692.06373070848;                        !- Volume {m3}

OS:Schedule:Ruleset,
  {699c356c-e040-4dba-9947-992adf276d59}, !- Handle
  heating setpoint,                       !- Name
  {430a270a-6cb9-4d61-96d4-7ff8b2e57e03}, !- Schedule Type Limits Name
  {33ceae6e-8416-415f-a7e4-3c129cf3939e}; !- Default Day Schedule Name

OS:Schedule:Day,
  {33ceae6e-8416-415f-a7e4-3c129cf3939e}, !- Handle
  heating setpoint default day,           !- Name
  {430a270a-6cb9-4d61-96d4-7ff8b2e57e03}, !- Schedule Type Limits Name
  ,                                       !- Interpolate to Timestep
  24,                                     !- Hour 1
  0,                                      !- Minute 1
  0;                                      !- Value Until Time 1

OS:Schedule:Rule,
  {ecf01a22-4d29-41a5-8729-7576feee7415}, !- Handle
  heating setpoint allday rule,           !- Name
  {699c356c-e040-4dba-9947-992adf276d59}, !- Schedule Ruleset Name
  0,                                      !- Rule Order
  {779496e1-1401-4ef2-a282-584025c73203}, !- Day Schedule Name
  Yes,                                    !- Apply Sunday
  Yes,                                    !- Apply Monday
  Yes,                                    !- Apply Tuesday
  Yes,                                    !- Apply Wednesday
  Yes,                                    !- Apply Thursday
  Yes,                                    !- Apply Friday
  Yes,                                    !- Apply Saturday
  DateRange,                              !- Date Specification Type
  1,                                      !- Start Month
  1,                                      !- Start Day
  12,                                     !- End Month
  31;                                     !- End Day

OS:Schedule:Day,
  {779496e1-1401-4ef2-a282-584025c73203}, !- Handle
  heating setpoint day,                   !- Name
  {430a270a-6cb9-4d61-96d4-7ff8b2e57e03}, !- Schedule Type Limits Name
  ,                                       !- Interpolate to Timestep
  24,                                     !- Hour 1
  0,                                      !- Minute 1
  20;                                     !- Value Until Time 1

OS:Schedule:Ruleset,
  {3c1f0c72-d4d2-4b3b-8266-d78bf0ab806b}, !- Handle
  cooling setpoint,                       !- Name
  {430a270a-6cb9-4d61-96d4-7ff8b2e57e03}, !- Schedule Type Limits Name
  {818008a3-2a10-418d-bd4a-db5c3a3cce54}; !- Default Day Schedule Name

OS:Schedule:Day,
  {818008a3-2a10-418d-bd4a-db5c3a3cce54}, !- Handle
  cooling setpoint default day,           !- Name
  {430a270a-6cb9-4d61-96d4-7ff8b2e57e03}, !- Schedule Type Limits Name
  ,                                       !- Interpolate to Timestep
  24,                                     !- Hour 1
  0,                                      !- Minute 1
  0;                                      !- Value Until Time 1

OS:Schedule:Rule,
  {d5615fce-ccea-4ca5-b723-1692f3dca352}, !- Handle
  cooling setpoint allday rule,           !- Name
  {3c1f0c72-d4d2-4b3b-8266-d78bf0ab806b}, !- Schedule Ruleset Name
  0,                                      !- Rule Order
  {cbb5ad74-e4a6-4237-9cea-05756ceb2928}, !- Day Schedule Name
  Yes,                                    !- Apply Sunday
  Yes,                                    !- Apply Monday
  Yes,                                    !- Apply Tuesday
  Yes,                                    !- Apply Wednesday
  Yes,                                    !- Apply Thursday
  Yes,                                    !- Apply Friday
  Yes,                                    !- Apply Saturday
  DateRange,                              !- Date Specification Type
  1,                                      !- Start Month
  1,                                      !- Start Day
  12,                                     !- End Month
  31;                                     !- End Day

OS:Schedule:Day,
  {cbb5ad74-e4a6-4237-9cea-05756ceb2928}, !- Handle
  cooling setpoint day,                   !- Name
  {430a270a-6cb9-4d61-96d4-7ff8b2e57e03}, !- Schedule Type Limits Name
  ,                                       !- Interpolate to Timestep
  24,                                     !- Hour 1
  0,                                      !- Minute 1
  25.5555555555556;                       !- Value Until Time 1

OS:ThermostatSetpoint:DualSetpoint,
  {21868b77-d77e-4823-9e17-300d7f89146b}, !- Handle
  conditioned space temperature setpoint, !- Name
  {699c356c-e040-4dba-9947-992adf276d59}, !- Heating Setpoint Temperature Schedule Name
  {3c1f0c72-d4d2-4b3b-8266-d78bf0ab806b}, !- Cooling Setpoint Temperature Schedule Name
  0;                                      !- Temperature Difference Between Cutout And Setpoint {deltaC}

OS:ScheduleTypeLimits,
  {430a270a-6cb9-4d61-96d4-7ff8b2e57e03}, !- Handle
  Temperature,                            !- Name
  ,                                       !- Lower Limit Value
  ,                                       !- Upper Limit Value
  Continuous,                             !- Numeric Type
  Temperature;                            !- Unit Type

OS:Surface,
  {03286922-8c8c-4390-b5aa-aa7f994fe4ec}, !- Handle
  Roof1,                                  !- Name
  RoofCeiling,                            !- Surface Type
  {cea40b00-c05f-4f32-9f74-3e54c7d9ac37}, !- Construction Name
  {59f9a2d1-53cb-4f28-867d-c7b9ef5817bc}, !- Space Name
  Outdoors,                               !- Outside Boundary Condition
  ,                                       !- Outside Boundary Condition Object
  SunExposed,                             !- Sun Exposure
  WindExposed,                            !- Wind Exposure
  ,                                       !- View Factor to Ground
  ,                                       !- Number of Vertices
  -26.9347048849634, 58.0557891618865, 2.4384, !- X,Y,Z Vertex 1 {m}
  -26.9347048849634, 46.7895631136661, 8.0715130241102, !- X,Y,Z Vertex 2 {m}
  -14.3386812381136, 46.7895631136661, 8.0715130241102, !- X,Y,Z Vertex 3 {m}
  -14.3386812381136, 58.0557891618865, 2.4384; !- X,Y,Z Vertex 4 {m}

OS:AdditionalProperties,
  {c8df879e-09ac-4ff9-afa1-2fff4eabe525}, !- Handle
  {03286922-8c8c-4390-b5aa-aa7f994fe4ec}, !- Object Name
  Length,                                 !- Feature Name 1
  Double,                                 !- Feature Data Type 1
  41.325536899113608,                     !- Feature Value 1
  Width,                                  !- Feature Name 2
  Double,                                 !- Feature Data Type 2
  41.325536899113601,                     !- Feature Value 2
  Azimuth,                                !- Feature Name 3
  Integer,                                !- Feature Data Type 3
  0,                                      !- Feature Value 3
  Tilt,                                   !- Feature Name 4
  Double,                                 !- Feature Data Type 4
  0.5,                                    !- Feature Value 4
  SurfaceType,                            !- Feature Name 5
  String,                                 !- Feature Data Type 5
  Roof;                                   !- Feature Value 5

OS:ThermalZone,
  {5f32521e-8f59-442d-8c97-f9d73e4897af}, !- Handle
  attic - vented,                         !- Name
  1,                                      !- Multiplier
  ,                                       !- Ceiling Height {m}
  356.389957095237,                       !- Volume {m3}
  ,                                       !- Floor Area {m2}
  ,                                       !- Zone Inside Convection Algorithm
  ,                                       !- Zone Outside Convection Algorithm
  ,                                       !- Zone Conditioning Equipment List Name
  {e58f716d-425d-4e28-b313-b0febb7ef2e9}, !- Zone Air Inlet Port List
  {88f988cf-7795-477a-86b5-9aeb290c5131}, !- Zone Air Exhaust Port List
  {41d89264-4bc9-4ce2-9ccf-f76500c235ef}, !- Zone Air Node Name
  {a45384b4-36d3-4f16-b096-29109a5dc516}, !- Zone Return Air Port List
  ,                                       !- Primary Daylighting Control Name
  ,                                       !- Fraction of Zone Controlled by Primary Daylighting Control
  ,                                       !- Secondary Daylighting Control Name
  ,                                       !- Fraction of Zone Controlled by Secondary Daylighting Control
  ,                                       !- Illuminance Map Name
  ,                                       !- Group Rendering Name
  ,                                       !- Thermostat Name
  No;                                     !- Use Ideal Air Loads

OS:Node,
  {aecfb12d-3cb4-4629-ae97-5fd3fe702120}, !- Handle
  Node 2,                                 !- Name
  {41d89264-4bc9-4ce2-9ccf-f76500c235ef}, !- Inlet Port
  ;                                       !- Outlet Port

OS:Connection,
  {41d89264-4bc9-4ce2-9ccf-f76500c235ef}, !- Handle
  {5f32521e-8f59-442d-8c97-f9d73e4897af}, !- Source Object
  11,                                     !- Outlet Port
  {aecfb12d-3cb4-4629-ae97-5fd3fe702120}, !- Target Object
  2;                                      !- Inlet Port

OS:PortList,
  {e58f716d-425d-4e28-b313-b0febb7ef2e9}, !- Handle
  {5f32521e-8f59-442d-8c97-f9d73e4897af}; !- HVAC Component

OS:PortList,
  {88f988cf-7795-477a-86b5-9aeb290c5131}, !- Handle
  {5f32521e-8f59-442d-8c97-f9d73e4897af}; !- HVAC Component

OS:PortList,
  {a45384b4-36d3-4f16-b096-29109a5dc516}, !- Handle
  {5f32521e-8f59-442d-8c97-f9d73e4897af}; !- HVAC Component

OS:Sizing:Zone,
  {6230b059-0acc-46f3-8bc9-abd7897f0baa}, !- Handle
  {5f32521e-8f59-442d-8c97-f9d73e4897af}, !- Zone or ZoneList Name
  SupplyAirTemperature,                   !- Zone Cooling Design Supply Air Temperature Input Method
  14,                                     !- Zone Cooling Design Supply Air Temperature {C}
  11.11,                                  !- Zone Cooling Design Supply Air Temperature Difference {deltaC}
  SupplyAirTemperature,                   !- Zone Heating Design Supply Air Temperature Input Method
  40,                                     !- Zone Heating Design Supply Air Temperature {C}
  11.11,                                  !- Zone Heating Design Supply Air Temperature Difference {deltaC}
  0.0085,                                 !- Zone Cooling Design Supply Air Humidity Ratio {kg-H2O/kg-air}
  0.008,                                  !- Zone Heating Design Supply Air Humidity Ratio {kg-H2O/kg-air}
  ,                                       !- Zone Heating Sizing Factor
  ,                                       !- Zone Cooling Sizing Factor
  DesignDay,                              !- Cooling Design Air Flow Method
  ,                                       !- Cooling Design Air Flow Rate {m3/s}
  ,                                       !- Cooling Minimum Air Flow per Zone Floor Area {m3/s-m2}
  ,                                       !- Cooling Minimum Air Flow {m3/s}
  ,                                       !- Cooling Minimum Air Flow Fraction
  DesignDay,                              !- Heating Design Air Flow Method
  ,                                       !- Heating Design Air Flow Rate {m3/s}
  ,                                       !- Heating Maximum Air Flow per Zone Floor Area {m3/s-m2}
  ,                                       !- Heating Maximum Air Flow {m3/s}
  ,                                       !- Heating Maximum Air Flow Fraction
  No,                                     !- Account for Dedicated Outdoor Air System
  NeutralSupplyAir,                       !- Dedicated Outdoor Air System Control Strategy
  autosize,                               !- Dedicated Outdoor Air Low Setpoint Temperature for Design {C}
  autosize,                               !- Dedicated Outdoor Air High Setpoint Temperature for Design {C}
  Sensible Load Only No Latent Load,      !- Zone Load Sizing Method
  HumidityRatioDifference,                !- Zone Latent Cooling Design Supply Air Humidity Ratio Input Method
  ,                                       !- Zone Dehumidification Design Supply Air Humidity Ratio {kgWater/kgDryAir}
  0.005,                                  !- Zone Cooling Design Supply Air Humidity Ratio Difference {kgWater/kgDryAir}
  HumidityRatioDifference,                !- Zone Latent Heating Design Supply Air Humidity Ratio Input Method
  ,                                       !- Zone Humidification Design Supply Air Humidity Ratio {kgWater/kgDryAir}
  0.005,                                  !- Zone Humidification Design Supply Air Humidity Ratio Difference {kgWater/kgDryAir}
  ,                                       !- Zone Humidistat Dehumidification Set Point Schedule Name
  ,                                       !- Zone Humidistat Humidification Set Point Schedule Name
  ,                                       !- Design Zone Air Distribution Effectiveness in Cooling Mode
  ,                                       !- Design Zone Air Distribution Effectiveness in Heating Mode
  ,                                       !- Design Zone Secondary Recirculation Fraction {dimensionless}
  ,                                       !- Design Minimum Zone Ventilation Efficiency {dimensionless}
  Coincident;                             !- Sizing Option

OS:ZoneHVAC:EquipmentList,
  {ef3a07ec-b3ed-4a75-a5ad-8ed1fb95fe77}, !- Handle
  Zone HVAC Equipment List 2,             !- Name
  {5f32521e-8f59-442d-8c97-f9d73e4897af}; !- Thermal Zone

OS:AdditionalProperties,
  {44ce9510-6c76-4907-afab-c30ae5e42c19}, !- Handle
  {5f32521e-8f59-442d-8c97-f9d73e4897af}, !- Object Name
  ObjectType,                             !- Feature Name 1
  String,                                 !- Feature Data Type 1
  attic - vented;                         !- Feature Value 1

OS:Space,
  {59f9a2d1-53cb-4f28-867d-c7b9ef5817bc}, !- Handle
  attic - vented 1,                       !- Name
  ,                                       !- Space Type Name
  ,                                       !- Default Construction Set Name
  ,                                       !- Default Schedule Set Name
  ,                                       !- Direction of Relative North {deg}
  ,                                       !- X Origin {m}
  ,                                       !- Y Origin {m}
  ,                                       !- Z Origin {m}
  ,                                       !- Building Story Name
  {5f32521e-8f59-442d-8c97-f9d73e4897af}, !- Thermal Zone Name
  ,                                       !- Part of Total Floor Area
  ,                                       !- Design Specification Outdoor Air Object Name
  ,                                       !- Building Unit Name
  356.389957095237;                       !- Volume {m3}

OS:Material,
  {ed7707e7-8397-4177-ab62-19b3569f3a69}, !- Handle
  asphalt or fiberglass shingles,         !- Name