
OS:Version,
  {3e295bac-5e8b-44fc-a994-70484de4479f}, !- Handle
  3.10.0;                                 !- Version Identifier

OS:SimulationControl,
  {2cd0fdb4-e4b8-43cd-ad28-e2ae24b1a131}, !- Handle
  ,                                       !- Do Zone Sizing Calculation
  ,                                       !- Do System Sizing Calculation
  ,                                       !- Do Plant Sizing Calculation
  No;                                     !- Run Simulation for Sizing Periods

OS:Timestep,
  {81dbc27e-52bc-4ed0-9b36-0ee144f2ae52}, !- Handle
  1;                                      !- Number of Timesteps per Hour

OS:ShadowCalculation,
  {8d98a38a-ef24-4c41-818a-082386981855}, !- Handle
  PolygonClipping,                        !- Shading Calculation Method
  ,                                       !- Shading Calculation Update Frequency Method
  20,                                     !- Shading Calculation Update Frequency
  200,                                    !- Maximum Figures in Shadow Overlap Calculations
  ,                                       !- Polygon Clipping Algorithm
  512,                                    !- Pixel Counting Resolution
  ,                                       !- Sky Diffuse Modeling Algorithm
  No,                                     !- Output External Shading Calculation Results
  No,                                     !- Disable Self-Shading Within Shading Zone Groups
  No;                                     !- Disable Self-Shading From Shading Zone Groups to Other Zones

OS:SurfaceConvectionAlgorithm:Outside,
  {93cfdf1a-f6c3-4a80-80ce-8c0fd866dcbc}, !- Handle
  DOE-2;                                  !- Algorithm

OS:SurfaceConvectionAlgorithm:Inside,
  {0e644a95-9e22-4002-bfd8-eceb2a1ec055}, !- Handle
  TARP;                                   !- Algorithm

OS:ZoneCapacitanceMultiplier:ResearchSpecial,
  {6e6408e2-c023-4f79-a8bd-42f992f011f9}, !- Handle
  7,                                      !- Temperature Capacity Multiplier
  15,                                     !- Humidity Capacity Multiplier
  ;                                       !- Carbon Dioxide Capacity Multiplier

OS:ConvergenceLimits,
  {4bf5210e-58d4-4cf4-97bd-c4c3d8192552}, !- Handle
  0;                                      !- Minimum System Timestep {minutes}

OS:RunPeriod,
  {f5607dc3-ac00-4373-aedc-586d12ab5a77}, !- Handle
  Run Period 1,                           !- Name
  1,                                      !- Begin Month
  1,                                      !- Begin Day of Month
  12,                                     !- End Month
  31,                                     !- End Day of Month
  ,                                       !- Use Weather File Holidays and Special Days
  ,                                       !- Use Weather File Daylight Saving Period
  ,                                       !- Apply Weekend Holiday Rule
  ,                                       !- Use Weather File Rain Indicators
  ,                                       !- Use Weather File Snow Indicators
  ;                                       !- Number of Times Runperiod to be Repeated

OS:PerformancePrecisionTradeoffs,
  {dd4ebab4-5b74-4f7b-b7c7-d19dc02ea872}, !- Handle
  ,                                       !- Use Coil Direct Solutions
  CarrollMRT;                             !- Zone Radiant Exchange Algorithm

OS:WeatherFile,
  {cbc20542-5846-426b-a313-dbd19278dab5}, !- Handle
  Buffalo Niagara Intl Ap,                !- City
  NY,                                     !- State Province Region
  USA,                                    !- Country
  TMY3,                                   !- Data Source
  725280,                                 !- WMO Number
  42.93,                                  !- Latitude {deg}
  -78.73,                                 !- Longitude {deg}
  -5,                                     !- Time Zone {hr}
  215,                                    !- Elevation {m}
  /Users/nmoore/github/urbanopt-example-geojson-project/example_project/weather/USA_NY_Buffalo-Greater.Buffalo.Intl.AP.725280_TMY3.epw, !- Url
  6B50E0FF,                               !- Checksum
  ,                                       !- Start Date Actual Year
  Sunday;                                 !- Start Day of Week

OS:YearDescription,
  {2fd01e1e-3eed-4c62-ae7a-1abbeacc640f}, !- Handle
  2007,                                   !- Calendar Year
  ,                                       !- Day of Week for Start Day
  ;                                       !- Is Leap Year

OS:Site,
  {151bd9bb-4fc3-46a3-ac25-8e72c92fc0d1}, !- Handle
  Buffalo Niagara Intl Ap_NY,             !- Name
  42.93,                                  !- Latitude {deg}
  -78.73,                                 !- Longitude {deg}
  -5,                                     !- Time Zone {hr}
  215,                                    !- Elevation {m}
  Suburbs,                                !- Terrain
  Yes;                                    !- Keep Site Location Information

OS:RunPeriodControl:DaylightSavingTime,
  {cc3b06e0-16db-4273-aa0c-4e52d70bb654}, !- Handle
  Mar 12,                                 !- Start Date
  Nov 5;                                  !- End Date

OS:Site:GroundTemperature:Shallow,
  {fef770f7-4820-4ab3-ab12-847eb3c67046}, !- Handle
  4.30207395723828,                       !- January Surface Ground Temperature {C}
  2.29327249652502,                       !- February Surface Ground Temperature {C}
  2.13240047156047,                       !- March Surface Ground Temperature {C}
  3.08567940719286,                       !- April Surface Ground Temperature {C}
  6.91256312497526,                       !- May Surface Ground Temperature {C}
  10.7216195949507,                       !- June Surface Ground Temperature {C}
  14.0238679822574,                       !- July Surface Ground Temperature {C}
  16.1157611184724,                       !- August Surface Ground Temperature {C}
  16.2934789303462,                       !- September Surface Ground Temperature {C}
  14.5920754632847,                       !- October Surface Ground Temperature {C}
  11.374036348653,                        !- November Surface Ground Temperature {C}
  7.68182621661674;                       !- December Surface Ground Temperature {C}

OS:ThermalZone,
  {ba038f94-17d2-44ae-ad67-21d95588857c}, !- Handle
  conditioned space,                      !- Name
  1,                                      !- Multiplier
  ,                                       !- Ceiling Height {m}
  692.06373070848,                        !- Volume {m3}
  ,                                       !- Floor Area {m2}
  ,                                       !- Zone Inside Convection Algorithm
  ,                                       !- Zone Outside Convection Algorithm
  ,                                       !- Zone Conditioning Equipment List Name
  {0fe72aac-d843-4db3-a011-f06b9b814806}, !- Zone Air Inlet Port List
  {29d58f2c-022b-4693-9860-c9895d8658fe}, !- Zone Air Exhaust Port List
  {32a71651-b9b4-4847-a4cf-4ca6c097db80}, !- Zone Air Node Name
  {07ab5edd-a387-45b7-90f8-28e24c25f6ed}, !- Zone Return Air Port List
  ,                                       !- Primary Daylighting Control Name
  ,                                       !- Fraction of Zone Controlled by Primary Daylighting Control
  ,                                       !- Secondary Daylighting Control Name
  ,                                       !- Fraction of Zone Controlled by Secondary Daylighting Control
  ,                                       !- Illuminance Map Name
  ,                                       !- Group Rendering Name
  {aac9912e-ebf5-4cf8-97a4-3fd9a43de8dd}, !- Thermostat Name
  No;                                     !- Use Ideal Air Loads

OS:Node,
  {754dea54-50f5-431e-b8a1-70e3aedd8a8d}, !- Handle
  Node 1,                                 !- Name
  {32a71651-b9b4-4847-a4cf-4ca6c097db80}, !- Inlet Port
  ;                                       !- Outlet Port

OS:Connection,
  {32a71651-b9b4-4847-a4cf-4ca6c097db80}, !- Handle
  {ba038f94-17d2-44ae-ad67-21d95588857c}, !- Source Object
  11,                                     !- Outlet Port
  {754dea54-50f5-431e-b8a1-70e3aedd8a8d}, !- Target Object
  2;                                      !- Inlet Port

OS:PortList,
  {0fe72aac-d843-4db3-a011-f06b9b814806}, !- Handle
  {ba038f94-17d2-44ae-ad67-21d95588857c}, !- HVAC Component
  {4b3269a5-94a5-4232-bd10-9d71ca2b3f6a}; !- Port 1

OS:PortList,
  {29d58f2c-022b-4693-9860-c9895d8658fe}, !- Handle
  {ba038f94-17d2-44ae-ad67-21d95588857c}; !- HVAC Component

OS:PortList,
  {07ab5edd-a387-45b7-90f8-28e24c25f6ed}, !- Handle
  {ba038f94-17d2-44ae-ad67-21d95588857c}, !- HVAC Component
  {1c176423-04ed-4be9-909f-75da28d7283b}; !- Port 1

OS:Sizing:Zone,
  {3bda6c34-d090-4ec7-89a1-910e07cc8669}, !- Handle
  {ba038f94-17d2-44ae-ad67-21d95588857c}, !- Zone or ZoneList Name
  SupplyAirTemperature,                   !- Zone Cooling Design Supply Air Temperature Input Method
  14,                                     !- Zone Cooling Design Supply Air Temperature {C}
  11.11,                                  !- Zone Cooling Design Supply Air Temperature Difference {deltaC}
  SupplyAirTemperature,                   !- Zone Heating Design Supply Air Temperature Input Method
  40,                                     !- Zone Heating Design Supply Air Temperature {C}
  11.11,                                  !- Zone Heating Design Supply Air Temperature Difference {deltaC}
  0.0085,                                 !- Zone Cooling Design Supply Air Humidity Ratio {kg-H2O/kg-air}
  0.008,                                  !- Zone Heating Design Supply Air Humidity Ratio {kg-H2O/kg-air}
  ,                                       !- Zone Heating Sizing Factor
  ,                                       !- Zone Cooling Sizing Factor
  DesignDay,                              !- Cooling Design Air Flow Method
  ,                                       !- Cooling Design Air Flow Rate {m3/s}
  ,                                       !- Cooling Minimum Air Flow per Zone Floor Area {m3/s-m2}
  ,                                       !- Cooling Minimum Air Flow {m3/s}
  ,                                       !- Cooling Minimum Air Flow Fraction
  DesignDay,                              !- Heating Design Air Flow Method
  ,                                       !- Heating Design Air Flow Rate {m3/s}
  ,                                       !- Heating Maximum Air Flow per Zone Floor Area {m3/s-m2}
  ,                                       !- Heating Maximum Air Flow {m3/s}
  ,                                       !- Heating Maximum Air Flow Fraction
  No,                                     !- Account for Dedicated Outdoor Air System
  NeutralSupplyAir,                       !- Dedicated Outdoor Air System Control Strategy
  autosize,                               !- Dedicated Outdoor Air Low Setpoint Temperature for Design {C}
  autosize,                               !- Dedicated Outdoor Air High Setpoint Temperature for Design {C}
  Sensible Load Only No Latent Load,      !- Zone Load Sizing Method
  HumidityRatioDifference,                !- Zone Latent Cooling Design Supply Air Humidity Ratio Input Method
  ,                                       !- Zone Dehumidification Design Supply Air Humidity Ratio {kgWater/kgDryAir}
  0.005,                                  !- Zone Cooling Design Supply Air Humidity Ratio Difference {kgWater/kgDryAir}
  HumidityRatioDifference,                !- Zone Latent Heating Design Supply Air Humidity Ratio Input Method
  ,                                       !- Zone Humidification Design Supply Air Humidity Ratio {kgWater/kgDryAir}
  0.005,                                  !- Zone Humidification Design Supply Air Humidity Ratio Difference {kgWater/kgDryAir}
  ,                                       !- Zone Humidistat Dehumidification Set Point Schedule Name
  ,                                       !- Zone Humidistat Humidification Set Point Schedule Name
  ,                                       !- Design Zone Air Distribution Effectiveness in Cooling Mode
  ,                                       !- Design Zone Air Distribution Effectiveness in Heating Mode
  ,                                       !- Design Zone Secondary Recirculation Fraction {dimensionless}
  ,                                       !- Design Minimum Zone Ventilation Efficiency {dimensionless}
  Coincident;                             !- Sizing Option

OS:ZoneHVAC:EquipmentList,
  {5c5eaf88-da6d-4e7d-a26c-146994bb4808}, !- Handle
  Zone HVAC Equipment List 1,             !- Name
  {ba038f94-17d2-44ae-ad67-21d95588857c}, !- Thermal Zone
  ,                                       !- Load Distribution Scheme
  {d763866c-9f7a-4ac8-bbc0-088bfaadbca1}, !- Zone Equipment 1
  1,                                      !- Zone Equipment Cooling Sequence 1
  1,                                      !- Zone Equipment Heating or No-Load Sequence 1
  {b98db6cd-1ad4-41ce-b321-d8e1c82a6c69}, !- Zone Equipment Sequential Cooling Fraction Schedule Name 1
  {b7ec5e99-386c-4650-b59b-4eca474feaac}, !- Zone Equipment Sequential Heating Fraction Schedule Name 1
  {389e752a-8eaa-4ee6-a732-ad44edfbf196}, !- Zone Equipment 2
  2,                                      !- Zone Equipment Cooling Sequence 2
  2,                                      !- Zone Equipment Heating or No-Load Sequence 2
  {c6091a2d-0aa4-465e-b4ad-5e0caa1b2d51}, !- Zone Equipment Sequential Cooling Fraction Schedule Name 2
  {a93b00d1-47eb-42f0-bb39-26fb1b566ab5}; !- Zone Equipment Sequential Heating Fraction Schedule Name 2

OS:AdditionalProperties,
  {e251e74d-7379-4183-a09e-7121684488b0}, !- Handle
  {ba038f94-17d2-44ae-ad67-21d95588857c}, !- Object Name
  ObjectType,                             !- Feature Name 1
  String,                                 !- Feature Data Type 1
  conditioned space;                      !- Feature Value 1

OS:Space,
  {53e8f2f2-af5d-45b7-982a-4234ced4563a}, !- Handle
  conditioned space 1,                    !- Name
  ,                                       !- Space Type Name
  ,                                       !- Default Construction Set Name
  ,                                       !- Default Schedule Set Name
  ,                                       !- Direction of Relative North {deg}
  ,                                       !- X Origin {m}
  ,                                       !- Y Origin {m}
  ,                                       !- Z Origin {m}
  ,                                       !- Building Story Name
  {ba038f94-17d2-44ae-ad67-21d95588857c}, !- Thermal Zone Name
  ,                                       !- Part of Total Floor Area
  ,                                       !- Design Specification Outdoor Air Object Name
  ,                                       !- Building Unit Name
  692.06373070848;                        !- Volume {m3}

OS:Schedule:Ruleset,
  {5bd9ed82-dd04-4d95-814d-61f741446d47}, !- Handle
  heating setpoint,                       !- Name
  {c7ff5243-35e3-46a9-8d92-98782eff906e}, !- Schedule Type Limits Name
  {92bbf0e9-f5b7-4ec8-bec5-a8148c61cd64}; !- Default Day Schedule Name

OS:Schedule:Day,
  {92bbf0e9-f5b7-4ec8-bec5-a8148c61cd64}, !- Handle
  heating setpoint default day,           !- Name
  {c7ff5243-35e3-46a9-8d92-98782eff906e}, !- Schedule Type Limits Name
  ,                                       !- Interpolate to Timestep
  24,                                     !- Hour 1
  0,                                      !- Minute 1
  0;                                      !- Value Until Time 1

OS:Schedule:Rule,
  {fb159938-8e0c-42a8-8579-d56fdad9fe73}, !- Handle
  heating setpoint allday rule,           !- Name
  {5bd9ed82-dd04-4d95-814d-61f741446d47}, !- Schedule Ruleset Name
  0,                                      !- Rule Order
  {4e8e0339-33ba-438a-b999-047b367a6f10}, !- Day Schedule Name
  Yes,                                    !- Apply Sunday
  Yes,                                    !- Apply Monday
  Yes,                                    !- Apply Tuesday
  Yes,                                    !- Apply Wednesday
  Yes,                                    !- Apply Thursday
  Yes,                                    !- Apply Friday
  Yes,                                    !- Apply Saturday
  DateRange,                              !- Date Specification Type
  1,                                      !- Start Month
  1,                                      !- Start Day
  12,                                     !- End Month
  31;                                     !- End Day

OS:Schedule:Day,
  {4e8e0339-33ba-438a-b999-047b367a6f10}, !- Handle
  heating setpoint day,                   !- Name
  {c7ff5243-35e3-46a9-8d92-98782eff906e}, !- Schedule Type Limits Name
  ,                                       !- Interpolate to Timestep
  24,                                     !- Hour 1
  0,                                      !- Minute 1
  20;                                     !- Value Until Time 1

OS:Schedule:Ruleset,
  {57531bfd-3654-4492-8e8a-5c400c55e6b1}, !- Handle
  cooling setpoint,                       !- Name
  {c7ff5243-35e3-46a9-8d92-98782eff906e}, !- Schedule Type Limits Name
  {3066752a-8a60-4e87-b0e3-1d16935f5333}; !- Default Day Schedule Name

OS:Schedule:Day,
  {3066752a-8a60-4e87-b0e3-1d16935f5333}, !- Handle
  cooling setpoint default day,           !- Name
  {c7ff5243-35e3-46a9-8d92-98782eff906e}, !- Schedule Type Limits Name
  ,                                       !- Interpolate to Timestep
  24,                                     !- Hour 1
  0,                                      !- Minute 1
  0;                                      !- Value Until Time 1

OS:Schedule:Rule,
  {0472073c-2085-4618-b069-8f3d6183707d}, !- Handle
  cooling setpoint allday rule,           !- Name
  {57531bfd-3654-4492-8e8a-5c400c55e6b1}, !- Schedule Ruleset Name
  0,                                      !- Rule Order
  {61fda12e-3472-4a86-a61d-0b1556353e8f}, !- Day Schedule Name
  Yes,                                    !- Apply Sunday
  Yes,                                    !- Apply Monday
  Yes,                                    !- Apply Tuesday
  Yes,                                    !- Apply Wednesday
  Yes,                                    !- Apply Thursday
  Yes,                                    !- Apply Friday
  Yes,                                    !- Apply Saturday
  DateRange,                              !- Date Specification Type
  1,                                      !- Start Month
  1,                                      !- Start Day
  12,                                     !- End Month
  31;                                     !- End Day

OS:Schedule:Day,
  {61fda12e-3472-4a86-a61d-0b1556353e8f}, !- Handle
  cooling setpoint day,                   !- Name
  {c7ff5243-35e3-46a9-8d92-98782eff906e}, !- Schedule Type Limits Name
  ,                                       !- Interpolate to Timestep
  24,                                     !- Hour 1
  0,                                      !- Minute 1
  25.5555555555556;                       !- Value Until Time 1

OS:ThermostatSetpoint:DualSetpoint,
  {aac9912e-ebf5-4cf8-97a4-3fd9a43de8dd}, !- Handle
  conditioned space temperature setpoint, !- Name
  {5bd9ed82-dd04-4d95-814d-61f741446d47}, !- Heating Setpoint Temperature Schedule Name
  {57531bfd-3654-4492-8e8a-5c400c55e6b1}, !- Cooling Setpoint Temperature Schedule Name
  0;                                      !- Temperature Difference Between Cutout And Setpoint {deltaC}

OS:ScheduleTypeLimits,
  {c7ff5243-35e3-46a9-8d92-98782eff906e}, !- Handle
  Temperature,                            !- Name
  ,                                       !- Lower Limit Value
  ,                                       !- Upper Limit Value
  Continuous,                             !- Numeric Type
  Temperature;                            !- Unit Type

OS:Surface,
  {d745d27a-ac0e-4e8c-a9cc-df9a1e8f0169}, !- Handle
  Roof1,                                  !- Name
  RoofCeiling,                            !- Surface Type
  {ac0d37a1-3180-4bc0-a018-b6f8351de01b}, !- Construction Name
  {7da70322-12a2-4bbd-b5d3-35595fbe140f}, !- Space Name
  Outdoors,                               !- Outside Boundary Condition
  ,                                       !- Outside Boundary Condition Object
  SunExposed,                             !- Sun Exposure
  WindExposed,                            !- Wind Exposure
  ,                                       !- View Factor to Ground
  ,                                       !- Number of Vertices
  -26.9347048849634, 58.0557891618865, 2.4384, !- X,Y,Z Vertex 1 {m}
  -26.9347048849634, 46.7895631136661, 8.0715130241102, !- X,Y,Z Vertex 2 {m}
  -14.3386812381136, 46.7895631136661, 8.0715130241102, !- X,Y,Z Vertex 3 {m}
  -14.3386812381136, 58.0557891618865, 2.4384; !- X,Y,Z Vertex 4 {m}

OS:AdditionalProperties,
  {6ecfd4d1-1dff-4c08-a109-9f8c1a897cc4}, !- Handle
  {d745d27a-ac0e-4e8c-a9cc-df9a1e8f0169}, !- Object Name
  Length,                                 !- Feature Name 1
  Double,                                 !- Feature Data Type 1
  41.325536899113608,                     !- Feature Value 1
  Width,                                  !- Feature Name 2
  Double,                                 !- Feature Data Type 2
  41.325536899113601,                     !- Feature Value 2
  Azimuth,                                !- Feature Name 3
  Integer,                                !- Feature Data Type 3
  0,                                      !- Feature Value 3
  Tilt,                                   !- Feature Name 4
  Double,                                 !- Feature Data Type 4
  0.5,                                    !- Feature Value 4
  SurfaceType,                            !- Feature Name 5
  String,                                 !- Feature Data Type 5
  Roof;                                   !- Feature Value 5

OS:ThermalZone,
  {4c2dc120-29c0-43c8-8242-bf328c366d02}, !- Handle
  attic - vented,                         !- Name
  1,                                      !- Multiplier
  ,                                       !- Ceiling Height {m}
  356.390921899745,                       !- Volume {m3}
  ,                                       !- Floor Area {m2}
  ,                                       !- Zone Inside Convection Algorithm
  ,                                       !- Zone Outside Convection Algorithm
  ,                                       !- Zone Conditioning Equipment List Name
  {9d7372c0-3357-4400-951a-8e6212233770}, !- Zone Air Inlet Port List
  {78cd47ec-dabb-4459-8300-47825b08fd1c}, !- Zone Air Exhaust Port List
  {1e3a3880-637b-4b37-9f43-e89a6df38777}, !- Zone Air Node Name
  {a055c732-3215-4983-93f7-c9e19bcfa85d}, !- Zone Return Air Port List
  ,                                       !- Primary Daylighting Control Name
  ,                                       !- Fraction of Zone Controlled by Primary Daylighting Control
  ,                                       !- Secondary Daylighting Control Name
  ,                                       !- Fraction of Zone Controlled by Secondary Daylighting Control
  ,                                       !- Illuminance Map Name
  ,                                       !- Group Rendering Name
  ,                                       !- Thermostat Name
  No;                                     !- Use Ideal Air Loads

OS:Node,
  {5cbaada3-9732-4996-bb72-352343222996}, !- Handle
  Node 2,                                 !- Name
  {1e3a3880-637b-4b37-9f43-e89a6df38777}, !- Inlet Port
  ;                                       !- Outlet Port

OS:Connection,
  {1e3a3880-637b-4b37-9f43-e89a6df38777}, !- Handle
  {4c2dc120-29c0-43c8-8242-bf328c366d02}, !- Source Object
  11,                                     !- Outlet Port
  {5cbaada3-9732-4996-bb72-352343222996}, !- Target Object
  2;                                      !- Inlet Port

OS:PortList,
  {9d7372c0-3357-4400-951a-8e6212233770}, !- Handle
  {4c2dc120-29c0-43c8-8242-bf328c366d02}; !- HVAC Component

OS:PortList,
  {78cd47ec-dabb-4459-8300-47825b08fd1c}, !- Handle
  {4c2dc120-29c0-43c8-8242-bf328c366d02}; !- HVAC Component

OS:PortList,
  {a055c732-3215-4983-93f7-c9e19bcfa85d}, !- Handle
  {4c2dc120-29c0-43c8-8242-bf328c366d02}; !- HVAC Component

OS:Sizing:Zone,
  {950d93a5-d03b-40b8-b7ff-3fd73bd0ac45}, !- Handle
  {4c2dc120-29c0-43c8-8242-bf328c366d02}, !- Zone or ZoneList Name
  SupplyAirTemperature,                   !- Zone Cooling Design Supply Air Temperature Input Method
  14,                                     !- Zone Cooling Design Supply Air Temperature {C}
  11.11,                                  !- Zone Cooling Design Supply Air Temperature Difference {deltaC}
  SupplyAirTemperature,                   !- Zone Heating Design Supply Air Temperature Input Method
  40,                                     !- Zone Heating Design Supply Air Temperature {C}
  11.11,                                  !- Zone Heating Design Supply Air Temperature Difference {deltaC}
  0.0085,                                 !- Zone Cooling Design Supply Air Humidity Ratio {kg-H2O/kg-air}
  0.008,                                  !- Zone Heating Design Supply Air Humidity Ratio {kg-H2O/kg-air}
  ,                                       !- Zone Heating Sizing Factor
  ,                                       !- Zone Cooling Sizing Factor
  DesignDay,                              !- Cooling Design Air Flow Method
  ,                                       !- Cooling Design Air Flow Rate {m3/s}
  ,                                       !- Cooling Minimum Air Flow per Zone Floor Area {m3/s-m2}
  ,                                       !- Cooling Minimum Air Flow {m3/s}
  ,                                       !- Cooling Minimum Air Flow Fraction
  DesignDay,                              !- Heating Design Air Flow Method
  ,                                       !- Heating Design Air Flow Rate {m3/s}
  ,                                       !- Heating Maximum Air Flow per Zone Floor Area {m3/s-m2}
  ,                                       !- Heating Maximum Air Flow {m3/s}
  ,                                       !- Heating Maximum Air Flow Fraction
  No,                                     !- Account for Dedicated Outdoor Air System
  NeutralSupplyAir,                       !- Dedicated Outdoor Air System Control Strategy
  autosize,                               !- Dedicated Outdoor Air Low Setpoint Temperature for Design {C}
  autosize,                               !- Dedicated Outdoor Air High Setpoint Temperature for Design {C}
  Sensible Load Only No Latent Load,      !- Zone Load Sizing Method
  HumidityRatioDifference,                !- Zone Latent Cooling Design Supply Air Humidity Ratio Input Method
  ,                                       !- Zone Dehumidification Design Supply Air Humidity Ratio {kgWater/kgDryAir}
  0.005,                                  !- Zone Cooling Design Supply Air Humidity Ratio Difference {kgWater/kgDryAir}
  HumidityRatioDifference,                !- Zone Latent Heating Design Supply Air Humidity Ratio Input Method
  ,                                       !- Zone Humidification Design Supply Air Humidity Ratio {kgWater/kgDryAir}
  0.005,                                  !- Zone Humidification Design Supply Air Humidity Ratio Difference {kgWater/kgDryAir}
  ,                                       !- Zone Humidistat Dehumidification Set Point Schedule Name
  ,                                       !- Zone Humidistat Humidification Set Point Schedule Name
  ,                                       !- Design Zone Air Distribution Effectiveness in Cooling Mode
  ,                                       !- Design Zone Air Distribution Effectiveness in Heating Mode
  ,                                       !- Design Zone Secondary Recirculation Fraction {dimensionless}
  ,                                       !- Design Minimum Zone Ventilation Efficiency {dimensionless}
  Coincident;                             !- Sizing Option

OS:ZoneHVAC:EquipmentList,
  {05f2af65-41f4-4b01-9e20-50418275a8d9}, !- Handle
  Zone HVAC Equipment List 2,             !- Name
  {4c2dc120-29c0-43c8-8242-bf328c366d02}; !- Thermal Zone

OS:AdditionalProperties,
  {55ed7fc8-8263-4097-b5ff-20420af1e310}, !- Handle
  {4c2dc120-29c0-43c8-8242-bf328c366d02}, !- Object Name
  ObjectType,                             !- Feature Name 1
  String,                                 !- Feature Data Type 1
  attic - vented;                         !- Feature Value 1

OS:Space,
  {7da70322-12a2-4bbd-b5d3-35595fbe140f}, !- Handle
  attic - vented 1,                       !- Name
  ,                                       !- Space Type Name
  ,                                       !- Default Construction Set Name
  ,                                       !- Default Schedule Set Name
  ,                                       !- Direction of Relative North {deg}
  ,                                       !- X Origin {m}
  ,                                       !- Y Origin {m}
  ,                                       !- Z Origin {m}
  ,                                       !- Building Story Name
  {4c2dc120-29c0-43c8-8242-bf328c366d02}, !- Thermal Zone Name
  ,                                       !- Part of Total Floor Area
  ,                                       !- Design Specification Outdoor Air Object Name
  ,                                       !- Building Unit Name
  356.390921899745;                       !- Volume {m3}

OS:Material,
  {390b8042-2ee4-4d16-bac1-032ed2a9afe2}, !- Handle
  asphalt or fiberglass shingles,         !- Name