
OS:Version,
  {8a2d24c8-93fc-47a4-a1d1-5d1eddbc0e13}, !- Handle
  3.10.0;                                 !- Version Identifier

OS:SimulationControl,
  {16af213c-b740-4bfe-9673-fcc7e889729f}, !- Handle
  ,                                       !- Do Zone Sizing Calculation
  ,                                       !- Do System Sizing Calculation
  ,                                       !- Do Plant Sizing Calculation
  No;                                     !- Run Simulation for Sizing Periods

OS:Timestep,
  {b8aaa494-784e-4ca1-b007-8680c19d6501}, !- Handle
  1;                                      !- Number of Timesteps per Hour

OS:ShadowCalculation,
  {94795b8c-7e38-4ab3-a550-90f9677992b2}, !- Handle
  PolygonClipping,                        !- Shading Calculation Method
  ,                                       !- Shading Calculation Update Frequency Method
  20,                                     !- Shading Calculation Update Frequency
  200,                                    !- Maximum Figures in Shadow Overlap Calculations
  ,                                       !- Polygon Clipping Algorithm
  512,                                    !- Pixel Counting Resolution
  ,                                       !- Sky Diffuse Modeling Algorithm
  No,                                     !- Output External Shading Calculation Results
  No,                                     !- Disable Self-Shading Within Shading Zone Groups
  No;                                     !- Disable Self-Shading From Shading Zone Groups to Other Zones

OS:SurfaceConvectionAlgorithm:Outside,
  {5d4bd38b-707e-497f-82e4-65caa9a0d89c}, !- Handle
  DOE-2;                                  !- Algorithm

OS:SurfaceConvectionAlgorithm:Inside,
  {e2d8b92e-de08-4de8-a376-062eb38c84a4}, !- Handle
  TARP;                                   !- Algorithm

OS:ZoneCapacitanceMultiplier:ResearchSpecial,
  {e5e5dab6-9f46-4b06-84b4-5aa5a6b91fff}, !- Handle
  7,                                      !- Temperature Capacity Multiplier
  15,                                     !- Humidity Capacity Multiplier
  ;                                       !- Carbon Dioxide Capacity Multiplier

OS:ConvergenceLimits,
  {b4c2a4e7-efc9-458e-8b24-60001caeb958}, !- Handle
  0;                                      !- Minimum System Timestep {minutes}

OS:RunPeriod,
  {3f99d10c-3c6e-4e95-93fe-b6eccb23b923}, !- Handle
  Run Period 1,                           !- Name
  1,                                      !- Begin Month
  1,                                      !- Begin Day of Month
  12,                                     !- End Month
  31,                                     !- End Day of Month
  ,                                       !- Use Weather File Holidays and Special Days
  ,                                       !- Use Weather File Daylight Saving Period
  ,                                       !- Apply Weekend Holiday Rule
  ,                                       !- Use Weather File Rain Indicators
  ,                                       !- Use Weather File Snow Indicators
  ;                                       !- Number of Times Runperiod to be Repeated

OS:PerformancePrecisionTradeoffs,
  {76c3ab14-c910-4a50-bbb0-9ff555934bda}, !- Handle
  ,                                       !- Use Coil Direct Solutions
  CarrollMRT;                             !- Zone Radiant Exchange Algorithm

OS:WeatherFile,
  {d610ef20-64b4-45b0-bea9-74fd3c63bed5}, !- Handle
  Buffalo Niagara Intl Ap,                !- City
  NY,                                     !- State Province Region
  USA,                                    !- Country
  TMY3,                                   !- Data Source
  725280,                                 !- WMO Number
  42.93,                                  !- Latitude {deg}
  -78.73,                                 !- Longitude {deg}
  -5,                                     !- Time Zone {hr}
  215,                                    !- Elevation {m}
  /Users/nmoore/github/urbanopt-example-geojson-project/example_project/weather/USA_NY_Buffalo-Greater.Buffalo.Intl.AP.725280_TMY3.epw, !- Url
  6B50E0FF,                               !- Checksum
  ,                                       !- Start Date Actual Year
  Sunday;                                 !- Start Day of Week

OS:YearDescription,
  {9ac6d779-dc2e-43ef-8688-76294239b7de}, !- Handle
  2007,                                   !- Calendar Year
  ,                                       !- Day of Week for Start Day
  ;                                       !- Is Leap Year

OS:Site,
  {9aa09c50-e155-4c27-8bee-ff24cbf7e110}, !- Handle
  Buffalo Niagara Intl Ap_NY,             !- Name
  42.93,                                  !- Latitude {deg}
  -78.73,                                 !- Longitude {deg}
  -5,                                     !- Time Zone {hr}
  215,                                    !- Elevation {m}
  Suburbs,                                !- Terrain
  Yes;                                    !- Keep Site Location Information

OS:RunPeriodControl:DaylightSavingTime,
  {64daca95-034c-45c1-a8df-f2940e3684c9}, !- Handle
  Mar 12,                                 !- Start Date
  Nov 5;                                  !- End Date

OS:Site:GroundTemperature:Shallow,
  {50dc7a96-227b-4e7d-ae2e-8c3df806b153}, !- Handle
  4.30207395723828,                       !- January Surface Ground Temperature {C}
  2.29327249652502,                       !- February Surface Ground Temperature {C}
  2.13240047156047,                       !- March Surface Ground Temperature {C}
  3.08567940719286,                       !- April Surface Ground Temperature {C}
  6.91256312497526,                       !- May Surface Ground Temperature {C}
  10.7216195949507,                       !- June Surface Ground Temperature {C}
  14.0238679822574,                       !- July Surface Ground Temperature {C}
  16.1157611184724,                       !- August Surface Ground Temperature {C}
  16.2934789303462,                       !- September Surface Ground Temperature {C}
  14.5920754632847,                       !- October Surface Ground Temperature {C}
  11.374036348653,                        !- November Surface Ground Temperature {C}
  7.68182621661674;                       !- December Surface Ground Temperature {C}

OS:ThermalZone,
  {65f9c679-b990-40f4-a9b1-1da4ffa9314b}, !- Handle
  conditioned space,                      !- Name
  1,                                      !- Multiplier
  ,                                       !- Ceiling Height {m}
  346.03186535424,                        !- Volume {m3}
  ,                                       !- Floor Area {m2}
  ,                                       !- Zone Inside Convection Algorithm
  ,                                       !- Zone Outside Convection Algorithm
  ,                                       !- Zone Conditioning Equipment List Name
  {1be70957-e5cd-4071-9e11-f730381596cd}, !- Zone Air Inlet Port List
  {e6d565f2-7c1d-4897-a45e-90ff12e4af3b}, !- Zone Air Exhaust Port List
  {00af4816-098f-401b-9958-5ccd9a7541dd}, !- Zone Air Node Name
  {473fbcf0-3664-4f38-aa34-532bdf29fdfd}, !- Zone Return Air Port List
  ,                                       !- Primary Daylighting Control Name
  ,                                       !- Fraction of Zone Controlled by Primary Daylighting Control
  ,                                       !- Secondary Daylighting Control Name
  ,                                       !- Fraction of Zone Controlled by Secondary Daylighting Control
  ,                                       !- Illuminance Map Name
  ,                                       !- Group Rendering Name
  {66cda722-2417-421a-9b99-9fe2bef6dd24}, !- Thermostat Name
  No;                                     !- Use Ideal Air Loads

OS:Node,
  {86c14925-bd5d-46fe-ba1f-0ad2e67c3b70}, !- Handle
  Node 1,                                 !- Name
  {00af4816-098f-401b-9958-5ccd9a7541dd}, !- Inlet Port
  ;                                       !- Outlet Port

OS:Connection,
  {00af4816-098f-401b-9958-5ccd9a7541dd}, !- Handle
  {65f9c679-b990-40f4-a9b1-1da4ffa9314b}, !- Source Object
  11,                                     !- Outlet Port
  {86c14925-bd5d-46fe-ba1f-0ad2e67c3b70}, !- Target Object
  2;                                      !- Inlet Port

OS:PortList,
  {1be70957-e5cd-4071-9e11-f730381596cd}, !- Handle
  {65f9c679-b990-40f4-a9b1-1da4ffa9314b}, !- HVAC Component
  {c306406f-f6e6-43d2-bf43-78154a41e22b}; !- Port 1

OS:PortList,
  {e6d565f2-7c1d-4897-a45e-90ff12e4af3b}, !- Handle
  {65f9c679-b990-40f4-a9b1-1da4ffa9314b}; !- HVAC Component

OS:PortList,
  {473fbcf0-3664-4f38-aa34-532bdf29fdfd}, !- Handle
  {65f9c679-b990-40f4-a9b1-1da4ffa9314b}, !- HVAC Component
  {b41df3c2-7ab8-49d3-a7e4-de11c625d1c6}; !- Port 1

OS:Sizing:Zone,
  {f2a016c8-3888-400c-9892-96d3cde559e1}, !- Handle
  {65f9c679-b990-40f4-a9b1-1da4ffa9314b}, !- Zone or ZoneList Name
  SupplyAirTemperature,                   !- Zone Cooling Design Supply Air Temperature Input Method
  14,                                     !- Zone Cooling Design Supply Air Temperature {C}
  11.11,                                  !- Zone Cooling Design Supply Air Temperature Difference {deltaC}
  SupplyAirTemperature,                   !- Zone Heating Design Supply Air Temperature Input Method
  40,                                     !- Zone Heating Design Supply Air Temperature {C}
  11.11,                                  !- Zone Heating Design Supply Air Temperature Difference {deltaC}
  0.0085,                                 !- Zone Cooling Design Supply Air Humidity Ratio {kg-H2O/kg-air}
  0.008,                                  !- Zone Heating Design Supply Air Humidity Ratio {kg-H2O/kg-air}
  ,                                       !- Zone Heating Sizing Factor
  ,                                       !- Zone Cooling Sizing Factor
  DesignDay,                              !- Cooling Design Air Flow Method
  ,                                       !- Cooling Design Air Flow Rate {m3/s}
  ,                                       !- Cooling Minimum Air Flow per Zone Floor Area {m3/s-m2}
  ,                                       !- Cooling Minimum Air Flow {m3/s}
  ,                                       !- Cooling Minimum Air Flow Fraction
  DesignDay,                              !- Heating Design Air Flow Method
  ,                                       !- Heating Design Air Flow Rate {m3/s}
  ,                                       !- Heating Maximum Air Flow per Zone Floor Area {m3/s-m2}
  ,                                       !- Heating Maximum Air Flow {m3/s}
  ,                                       !- Heating Maximum Air Flow Fraction
  No,                                     !- Account for Dedicated Outdoor Air System
  NeutralSupplyAir,                       !- Dedicated Outdoor Air System Control Strategy
  autosize,                               !- Dedicated Outdoor Air Low Setpoint Temperature for Design {C}
  autosize,                               !- Dedicated Outdoor Air High Setpoint Temperature for Design {C}
  Sensible Load Only No Latent Load,      !- Zone Load Sizing Method
  HumidityRatioDifference,                !- Zone Latent Cooling Design Supply Air Humidity Ratio Input Method
  ,                                       !- Zone Dehumidification Design Supply Air Humidity Ratio {kgWater/kgDryAir}
  0.005,                                  !- Zone Cooling Design Supply Air Humidity Ratio Difference {kgWater/kgDryAir}
  HumidityRatioDifference,                !- Zone Latent Heating Design Supply Air Humidity Ratio Input Method
  ,                                       !- Zone Humidification Design Supply Air Humidity Ratio {kgWater/kgDryAir}
  0.005,                                  !- Zone Humidification Design Supply Air Humidity Ratio Difference {kgWater/kgDryAir}
  ,                                       !- Zone Humidistat Dehumidification Set Point Schedule Name
  ,                                       !- Zone Humidistat Humidification Set Point Schedule Name
  ,                                       !- Design Zone Air Distribution Effectiveness in Cooling Mode
  ,                                       !- Design Zone Air Distribution Effectiveness in Heating Mode
  ,                                       !- Design Zone Secondary Recirculation Fraction {dimensionless}
  ,                                       !- Design Minimum Zone Ventilation Efficiency {dimensionless}
  Coincident;                             !- Sizing Option

OS:ZoneHVAC:EquipmentList,
  {7f2db535-d5d9-4c66-b8d7-6c3456422aa7}, !- Handle
  Zone HVAC Equipment List 1,             !- Name
  {65f9c679-b990-40f4-a9b1-1da4ffa9314b}, !- Thermal Zone
  ,                                       !- Load Distribution Scheme
  {198a882d-59db-4d99-973f-b5a265486424}, !- Zone Equipment 1
  1,                                      !- Zone Equipment Cooling Sequence 1
  1,                                      !- Zone Equipment Heating or No-Load Sequence 1
  {d4b459dd-8adf-4840-9773-808d4c514b04}, !- Zone Equipment Sequential Cooling Fraction Schedule Name 1
  {b68f51a0-a23e-43de-ab12-e2940a35da27}; !- Zone Equipment Sequential Heating Fraction Schedule Name 1

OS:AdditionalProperties,
  {12bedb16-0a10-4fb0-88e8-cac6e6c6c18f}, !- Handle
  {65f9c679-b990-40f4-a9b1-1da4ffa9314b}, !- Object Name
  ObjectType,                             !- Feature Name 1
  String,                                 !- Feature Data Type 1
  conditioned space;                      !- Feature Value 1

OS:Space,
  {bac9eb0f-0603-46fa-b451-faf3815522b7}, !- Handle
  conditioned space 1,                    !- Name
  ,                                       !- Space Type Name
  ,                                       !- Default Construction Set Name
  ,                                       !- Default Schedule Set Name
  ,                                       !- Direction of Relative North {deg}
  ,                                       !- X Origin {m}
  ,                                       !- Y Origin {m}
  ,                                       !- Z Origin {m}
  ,                                       !- Building Story Name
  {65f9c679-b990-40f4-a9b1-1da4ffa9314b}, !- Thermal Zone Name
  ,                                       !- Part of Total Floor Area
  ,                                       !- Design Specification Outdoor Air Object Name
  ,                                       !- Building Unit Name
  346.03186535424;                        !- Volume {m3}

OS:Schedule:Ruleset,
  {9068ea46-5422-473f-bf1f-ec943689287c}, !- Handle
  heating setpoint,                       !- Name
  {19595811-b6a2-4ec4-8d19-5899850455cb}, !- Schedule Type Limits Name
  {edbcbbb7-32be-4d3f-8bfb-2db6d458a865}; !- Default Day Schedule Name

OS:Schedule:Day,
  {edbcbbb7-32be-4d3f-8bfb-2db6d458a865}, !- Handle
  heating setpoint default day,           !- Name
  {19595811-b6a2-4ec4-8d19-5899850455cb}, !- Schedule Type Limits Name
  ,                                       !- Interpolate to Timestep
  24,                                     !- Hour 1
  0,                                      !- Minute 1
  0;                                      !- Value Until Time 1

OS:Schedule:Rule,
  {b4311c21-4111-4cc4-bd00-50743ecc711b}, !- Handle
  heating setpoint allday rule,           !- Name
  {9068ea46-5422-473f-bf1f-ec943689287c}, !- Schedule Ruleset Name
  0,                                      !- Rule Order
  {3e9d44d5-bf62-4ac6-8bca-5af1f919ee91}, !- Day Schedule Name
  Yes,                                    !- Apply Sunday
  Yes,                                    !- Apply Monday
  Yes,                                    !- Apply Tuesday
  Yes,                                    !- Apply Wednesday
  Yes,                                    !- Apply Thursday
  Yes,                                    !- Apply Friday
  Yes,                                    !- Apply Saturday
  DateRange,                              !- Date Specification Type
  1,                                      !- Start Month
  1,                                      !- Start Day
  12,                                     !- End Month
  31;                                     !- End Day

OS:Schedule:Day,
  {3e9d44d5-bf62-4ac6-8bca-5af1f919ee91}, !- Handle
  heating setpoint day,                   !- Name
  {19595811-b6a2-4ec4-8d19-5899850455cb}, !- Schedule Type Limits Name
  ,                                       !- Interpolate to Timestep
  24,                                     !- Hour 1
  0,                                      !- Minute 1
  20;                                     !- Value Until Time 1

OS:Schedule:Ruleset,
  {a8f326b0-99d4-47ea-bee9-4ceb34a948a7}, !- Handle
  cooling setpoint,                       !- Name
  {19595811-b6a2-4ec4-8d19-5899850455cb}, !- Schedule Type Limits Name
  {1b71ec10-593f-49c6-8d34-1e5b15aed476}; !- Default Day Schedule Name

OS:Schedule:Day,
  {1b71ec10-593f-49c6-8d34-1e5b15aed476}, !- Handle
  cooling setpoint default day,           !- Name
  {19595811-b6a2-4ec4-8d19-5899850455cb}, !- Schedule Type Limits Name
  ,                                       !- Interpolate to Timestep
  24,                                     !- Hour 1
  0,                                      !- Minute 1
  0;                                      !- Value Until Time 1

OS:Schedule:Rule,
  {b411ab49-dfd4-491d-9070-eba252771f5d}, !- Handle
  cooling setpoint allday rule,           !- Name
  {a8f326b0-99d4-47ea-bee9-4ceb34a948a7}, !- Schedule Ruleset Name
  0,                                      !- Rule Order
  {9d029428-fbbe-4033-9f11-7dfb4f78b7e5}, !- Day Schedule Name
  Yes,                                    !- Apply Sunday
  Yes,                                    !- Apply Monday
  Yes,                                    !- Apply Tuesday
  Yes,                                    !- Apply Wednesday
  Yes,                                    !- Apply Thursday
  Yes,                                    !- Apply Friday
  Yes,                                    !- Apply Saturday
  DateRange,                              !- Date Specification Type
  1,                                      !- Start Month
  1,                                      !- Start Day
  12,                                     !- End Month
  31;                                     !- End Day

OS:Schedule:Day,
  {9d029428-fbbe-4033-9f11-7dfb4f78b7e5}, !- Handle
  cooling setpoint day,                   !- Name
  {19595811-b6a2-4ec4-8d19-5899850455cb}, !- Schedule Type Limits Name
  ,                                       !- Interpolate to Timestep
  24,                                     !- Hour 1
  0,                                      !- Minute 1
  25.5555555555556;                       !- Value Until Time 1

OS:ThermostatSetpoint:DualSetpoint,
  {66cda722-2417-421a-9b99-9fe2bef6dd24}, !- Handle
  conditioned space temperature setpoint, !- Name
  {9068ea46-5422-473f-bf1f-ec943689287c}, !- Heating Setpoint Temperature Schedule Name
  {a8f326b0-99d4-47ea-bee9-4ceb34a948a7}, !- Cooling Setpoint Temperature Schedule Name
  0;                                      !- Temperature Difference Between Cutout And Setpoint {deltaC}

OS:ScheduleTypeLimits,
  {19595811-b6a2-4ec4-8d19-5899850455cb}, !- Handle
  Temperature,                            !- Name
  ,                                       !- Lower Limit Value
  ,                                       !- Upper Limit Value
  Continuous,                             !- Numeric Type
  Temperature;                            !- Unit Type

OS:Surface,
  {f5223c04-1a3e-4a0f-a93a-d843e3ac6d05}, !- Handle
  Roof1,                                  !- Name
  RoofCeiling,                            !- Surface Type
  {07270cfe-529e-4c85-80e3-92286db17138}, !- Construction Name
  {1d8de8dc-36c6-4151-8e79-81238f69d0dd}, !- Space Name
  Outdoors,                               !- Outside Boundary Condition
  ,                                       !- Outside Boundary Condition Object
  SunExposed,                             !- Sun Exposure
  WindExposed,                            !- Wind Exposure
  ,                                       !- View Factor to Ground
  ,                                       !- Number of Vertices
  1.41860524590607, 10.3253389825797, 3.048, !- X,Y,Z Vertex 1 {m}
  1.41860524590607, 2.35891414550252, 7.03121241853859, !- X,Y,Z Vertex 2 {m}
  10.3253389825797, 2.35891414550251, 7.03121241853859, !- X,Y,Z Vertex 3 {m}
  10.3253389825797, 10.3253389825797, 3.048; !- X,Y,Z Vertex 4 {m}

OS:AdditionalProperties,
  {c2e02662-25f4-43f2-860e-c90ba7500ec2}, !- Handle
  {f5223c04-1a3e-4a0f-a93a-d843e3ac6d05}, !- Object Name
  Length,                                 !- Feature Name 1
  Double,                                 !- Feature Data Type 1
  29.221567377538118,                     !- Feature Value 1
  Width,                                  !- Feature Name 2
  Double,                                 !- Feature Data Type 2
  29.221567377538118,                     !- Feature Value 2
  Azimuth,                                !- Feature Name 3
  Integer,                                !- Feature Data Type 3
  0,                                      !- Feature Value 3
  Tilt,                                   !- Feature Name 4
  Double,                                 !- Feature Data Type 4
  0.5,                                    !- Feature Value 4
  SurfaceType,                            !- Feature Name 5
  String,                                 !- Feature Data Type 5
  Roof;                                   !- Feature Value 5

OS:ThermalZone,
  {c1b61ade-3975-4db8-9e3d-8a7b02d0d132}, !- Handle
  attic - vented,                         !- Name
  1,                                      !- Multiplier
  ,                                       !- Ceiling Height {m}
  126.003218814318,                       !- Volume {m3}
  ,                                       !- Floor Area {m2}
  ,                                       !- Zone Inside Convection Algorithm
  ,                                       !- Zone Outside Convection Algorithm
  ,                                       !- Zone Conditioning Equipment List Name
  {bd83d0e6-3f75-4a39-9dee-04a6b263e83a}, !- Zone Air Inlet Port List
  {bc126897-7415-4a08-89d9-5b42cf8486ef}, !- Zone Air Exhaust Port List
  {7b41de14-e026-4248-8970-c85503ece784}, !- Zone Air Node Name
  {69b495b3-84d2-4241-b015-68624210eded}, !- Zone Return Air Port List
  ,                                       !- Primary Daylighting Control Name
  ,                                       !- Fraction of Zone Controlled by Primary Daylighting Control
  ,                                       !- Secondary Daylighting Control Name
  ,                                       !- Fraction of Zone Controlled by Secondary Daylighting Control
  ,                                       !- Illuminance Map Name
  ,                                       !- Group Rendering Name
  ,                                       !- Thermostat Name
  No;                                     !- Use Ideal Air Loads

OS:Node,
  {127573c7-decd-4985-b96d-50ee0591b505}, !- Handle
  Node 2,                                 !- Name
  {7b41de14-e026-4248-8970-c85503ece784}, !- Inlet Port
  ;                                       !- Outlet Port

OS:Connection,
  {7b41de14-e026-4248-8970-c85503ece784}, !- Handle
  {c1b61ade-3975-4db8-9e3d-8a7b02d0d132}, !- Source Object
  11,                                     !- Outlet Port
  {127573c7-decd-4985-b96d-50ee0591b505}, !- Target Object
  2;                                      !- Inlet Port

OS:PortList,
  {bd83d0e6-3f75-4a39-9dee-04a6b263e83a}, !- Handle
  {c1b61ade-3975-4db8-9e3d-8a7b02d0d132}; !- HVAC Component

OS:PortList,
  {bc126897-7415-4a08-89d9-5b42cf8486ef}, !- Handle
  {c1b61ade-3975-4db8-9e3d-8a7b02d0d132}; !- HVAC Component

OS:PortList,
  {69b495b3-84d2-4241-b015-68624210eded}, !- Handle
  {c1b61ade-3975-4db8-9e3d-8a7b02d0d132}; !- HVAC Component

OS:Sizing:Zone,
  {d75837d4-604e-4257-96aa-9bee1c9f9399}, !- Handle
  {c1b61ade-3975-4db8-9e3d-8a7b02d0d132}, !- Zone or ZoneList Name
  SupplyAirTemperature,                   !- Zone Cooling Design Supply Air Temperature Input Method
  14,                                     !- Zone Cooling Design Supply Air Temperature {C}
  11.11,                                  !- Zone Cooling Design Supply Air Temperature Difference {deltaC}
  SupplyAirTemperature,                   !- Zone Heating Design Supply Air Temperature Input Method
  40,                                     !- Zone Heating Design Supply Air Temperature {C}
  11.11,                                  !- Zone Heating Design Supply Air Temperature Difference {deltaC}
  0.0085,                                 !- Zone Cooling Design Supply Air Humidity Ratio {kg-H2O/kg-air}
  0.008,                                  !- Zone Heating Design Supply Air Humidity Ratio {kg-H2O/kg-air}
  ,                                       !- Zone Heating Sizing Factor
  ,                                       !- Zone Cooling Sizing Factor
  DesignDay,                              !- Cooling Design Air Flow Method
  ,                                       !- Cooling Design Air Flow Rate {m3/s}
  ,                                       !- Cooling Minimum Air Flow per Zone Floor Area {m3/s-m2}
  ,                                       !- Cooling Minimum Air Flow {m3/s}
  ,                                       !- Cooling Minimum Air Flow Fraction
  DesignDay,                              !- Heating Design Air Flow Method
  ,                                       !- Heating Design Air Flow Rate {m3/s}
  ,                                       !- Heating Maximum Air Flow per Zone Floor Area {m3/s-m2}
  ,                                       !- Heating Maximum Air Flow {m3/s}
  ,                                       !- Heating Maximum Air Flow Fraction
  No,                                     !- Account for Dedicated Outdoor Air System
  NeutralSupplyAir,                       !- Dedicated Outdoor Air System Control Strategy
  autosize,                               !- Dedicated Outdoor Air Low Setpoint Temperature for Design {C}
  autosize,                               !- Dedicated Outdoor Air High Setpoint Temperature for Design {C}
  Sensible Load Only No Latent Load,      !- Zone Load Sizing Method
  HumidityRatioDifference,                !- Zone Latent Cooling Design Supply Air Humidity Ratio Input Method
  ,                                       !- Zone Dehumidification Design Supply Air Humidity Ratio {kgWater/kgDryAir}
  0.005,                                  !- Zone Cooling Design Supply Air Humidity Ratio Difference {kgWater/kgDryAir}
  HumidityRatioDifference,                !- Zone Latent Heating Design Supply Air Humidity Ratio Input Method
  ,                                       !- Zone Humidification Design Supply Air Humidity Ratio {kgWater/kgDryAir}
  0.005,                                  !- Zone Humidification Design Supply Air Humidity Ratio Difference {kgWater/kgDryAir}
  ,                                       !- Zone Humidistat Dehumidification Set Point Schedule Name
  ,                                       !- Zone Humidistat Humidification Set Point Schedule Name
  ,                                       !- Design Zone Air Distribution Effectiveness in Cooling Mode
  ,                                       !- Design Zone Air Distribution Effectiveness in Heating Mode
  ,                                       !- Design Zone Secondary Recirculation Fraction {dimensionless}
  ,                                       !- Design Minimum Zone Ventilation Efficiency {dimensionless}
  Coincident;                             !- Sizing Option

OS:ZoneHVAC:EquipmentList,
  {eb53ba1f-af17-40e2-b889-f8296a05b836}, !- Handle
  Zone HVAC Equipment List 2,             !- Name
  {c1b61ade-3975-4db8-9e3d-8a7b02d0d132}; !- Thermal Zone

OS:AdditionalProperties,
  {5e04eecf-545f-469a-8d16-376c4599f6cc}, !- Handle
  {c1b61ade-3975-4db8-9e3d-8a7b02d0d132}, !- Object Name
  ObjectType,                             !- Feature Name 1
  String,                                 !- Feature Data Type 1
  attic - vented;                         !- Feature Value 1

OS:Space,
  {1d8de8dc-36c6-4151-8e79-81238f69d0dd}, !- Handle
  attic - vented 1,                       !- Name
  ,                                       !- Space Type Name
  ,                                       !- Default Construction Set Name
  ,                                       !- Default Schedule Set Name
  ,                                       !- Direction of Relative North {deg}
  ,                                       !- X Origin {m}
  ,                                       !- Y Origin {m}
  ,                                       !- Z Origin {m}
  ,                                       !- Building Story Name
  {c1b61ade-3975-4db8-9e3d-8a7b02d0d132}, !- Thermal Zone Name
  ,                                       !- Part of Total Floor Area
  ,                                       !- Design Specification Outdoor Air Object Name
  ,                                       !- Building Unit Name
  126.003218814318;                       !- Volume {m3}

OS:Material,
  {d8424387-4ea2-4b01-85ce-789a7fb4b06e}, !- Handle
  asphalt or fiberglass shingles,         !- Name
  Rough,                                  !- Roughness
  0.00635,                                !- Thickness {m}
  0.162714,                               !- Conductivity {W/m-K}
  1121.4,                                 !- Density {kg/m3}
  1465.45,                                !- Specific Heat {J/kg-K}
  0.9,                                    !- Thermal Absorptance
  0.85,                                   !- Solar Absorptance