
OS:Version,
  {33595a20-fbcc-4b28-aa67-38bc772d5ffe}, !- Handle
  3.9.0;                                  !- Version Identifier

OS:SimulationControl,
  {f9e76921-ee10-41cf-809f-7acf226a5195}, !- Handle
  ,                                       !- Do Zone Sizing Calculation
  ,                                       !- Do System Sizing Calculation
  ,                                       !- Do Plant Sizing Calculation
  No;                                     !- Run Simulation for Sizing Periods

OS:Timestep,
  {02502d83-c923-4452-b182-24ab1ff7c558}, !- Handle
  1;                                      !- Number of Timesteps per Hour

OS:ShadowCalculation,
  {ebbb9fe9-82de-4bf1-82da-e04b91b74220}, !- Handle
  PolygonClipping,                        !- Shading Calculation Method
  ,                                       !- Shading Calculation Update Frequency Method
  20,                                     !- Shading Calculation Update Frequency
  200,                                    !- Maximum Figures in Shadow Overlap Calculations
  ,                                       !- Polygon Clipping Algorithm
  512,                                    !- Pixel Counting Resolution
  ,                                       !- Sky Diffuse Modeling Algorithm
  No,                                     !- Output External Shading Calculation Results
  No,                                     !- Disable Self-Shading Within Shading Zone Groups
  No;                                     !- Disable Self-Shading From Shading Zone Groups to Other Zones

OS:SurfaceConvectionAlgorithm:Outside,
  {68264716-610f-46bf-9744-33a46afef379}, !- Handle
  DOE-2;                                  !- Algorithm

OS:SurfaceConvectionAlgorithm:Inside,
  {d175a41c-5248-4842-90c2-cbcbd1d13d1a}, !- Handle
  TARP;                                   !- Algorithm

OS:ZoneCapacitanceMultiplier:ResearchSpecial,
  {d3d307b3-3b95-49a4-a507-98e538ebdc1a}, !- Handle
  7,                                      !- Temperature Capacity Multiplier
  15,                                     !- Humidity Capacity Multiplier
  ;                                       !- Carbon Dioxide Capacity Multiplier

OS:ConvergenceLimits,
  {92ee0d5b-855c-44d8-9757-0a86c71ba4c9}, !- Handle
  0;                                      !- Minimum System Timestep {minutes}

OS:RunPeriod,
  {0fd62515-f786-4008-972a-0bdda3a3ef73}, !- Handle
  Run Period 1,                           !- Name
  1,                                      !- Begin Month
  1,                                      !- Begin Day of Month
  12,                                     !- End Month
  31,                                     !- End Day of Month
  ,                                       !- Use Weather File Holidays and Special Days
  ,                                       !- Use Weather File Daylight Saving Period
  ,                                       !- Apply Weekend Holiday Rule
  ,                                       !- Use Weather File Rain Indicators
  ,                                       !- Use Weather File Snow Indicators
  ;                                       !- Number of Times Runperiod to be Repeated

OS:PerformancePrecisionTradeoffs,
  {bb6ad966-d06b-43da-9b33-7f425f5c5585}, !- Handle
  ,                                       !- Use Coil Direct Solutions
  CarrollMRT;                             !- Zone Radiant Exchange Algorithm

OS:WeatherFile,
  {c6096733-89e4-4d4f-b9df-cc948139477a}, !- Handle
  Buffalo Niagara Intl Ap,                !- City
  NY,                                     !- State Province Region
  USA,                                    !- Country
  TMY3,                                   !- Data Source
  725280,                                 !- WMO Number
  42.93,                                  !- Latitude {deg}
  -78.73,                                 !- Longitude {deg}
  -5,                                     !- Time Zone {hr}
  215,                                    !- Elevation {m}
  /Users/nmoore/github/urbanopt-example-geojson-project/example_project/weather/USA_NY_Buffalo-Greater.Buffalo.Intl.AP.725280_TMY3.epw, !- Url
  6B50E0FF,                               !- Checksum
  ,                                       !- Start Date Actual Year
  Sunday;                                 !- Start Day of Week

OS:YearDescription,
  {d6fcd569-7c29-47b9-a114-3c5c7ba53854}, !- Handle
  2007,                                   !- Calendar Year
  ,                                       !- Day of Week for Start Day
  ;                                       !- Is Leap Year

OS:Site,
  {4ac7387e-eef4-47cc-8924-88d238e90f06}, !- Handle
  Buffalo Niagara Intl Ap_NY,             !- Name
  42.93,                                  !- Latitude {deg}
  -78.73,                                 !- Longitude {deg}
  -5,                                     !- Time Zone {hr}
  215,                                    !- Elevation {m}
  Suburbs,                                !- Terrain
  Yes;                                    !- Keep Site Location Information

OS:RunPeriodControl:DaylightSavingTime,
  {e55f88b6-c752-487b-80ce-432130646907}, !- Handle
  Mar 12,                                 !- Start Date
  Nov 5;                                  !- End Date

OS:Site:GroundTemperature:Shallow,
  {6acf3ced-1278-480d-a955-9b79182bca29}, !- Handle
  4.30207395723828,                       !- January Surface Ground Temperature {C}
  2.29327249652502,                       !- February Surface Ground Temperature {C}
  2.13240047156047,                       !- March Surface Ground Temperature {C}
  3.08567940719286,                       !- April Surface Ground Temperature {C}
  6.91256312497526,                       !- May Surface Ground Temperature {C}
  10.7216195949507,                       !- June Surface Ground Temperature {C}
  14.0238679822574,                       !- July Surface Ground Temperature {C}
  16.1157611184724,                       !- August Surface Ground Temperature {C}
  16.2934789303462,                       !- September Surface Ground Temperature {C}
  14.5920754632847,                       !- October Surface Ground Temperature {C}
  11.374036348653,                        !- November Surface Ground Temperature {C}
  7.68182621661674;                       !- December Surface Ground Temperature {C}

OS:ThermalZone,
  {1cb869ec-4bfb-4b61-91d1-d363ed6dd9d0}, !- Handle
  conditioned space,                      !- Name
  1,                                      !- Multiplier
  ,                                       !- Ceiling Height {m}
  346.03186535424,                        !- Volume {m3}
  ,                                       !- Floor Area {m2}
  ,                                       !- Zone Inside Convection Algorithm
  ,                                       !- Zone Outside Convection Algorithm
  ,                                       !- Zone Conditioning Equipment List Name
  {1c764bea-b4a7-4f8b-8d71-9afb56aa6316}, !- Zone Air Inlet Port List
  {8648f0ff-0a01-41c6-8561-d457cf97803d}, !- Zone Air Exhaust Port List
  {c0226823-ad41-4ed9-b3f1-ae12c3221881}, !- Zone Air Node Name
  {90f25f8d-4cbe-40b2-a4bb-930723c3ad6a}, !- Zone Return Air Port List
  ,                                       !- Primary Daylighting Control Name
  ,                                       !- Fraction of Zone Controlled by Primary Daylighting Control
  ,                                       !- Secondary Daylighting Control Name
  ,                                       !- Fraction of Zone Controlled by Secondary Daylighting Control
  ,                                       !- Illuminance Map Name
  ,                                       !- Group Rendering Name
  {521ea224-94f9-44ff-86b1-9887884f2c4b}, !- Thermostat Name
  No;                                     !- Use Ideal Air Loads

OS:Node,
  {093d66bb-21c6-46c7-9209-36cb91b9a434}, !- Handle
  Node 1,                                 !- Name
  {c0226823-ad41-4ed9-b3f1-ae12c3221881}, !- Inlet Port
  ;                                       !- Outlet Port

OS:Connection,
  {c0226823-ad41-4ed9-b3f1-ae12c3221881}, !- Handle
  {1cb869ec-4bfb-4b61-91d1-d363ed6dd9d0}, !- Source Object
  11,                                     !- Outlet Port
  {093d66bb-21c6-46c7-9209-36cb91b9a434}, !- Target Object
  2;                                      !- Inlet Port

OS:PortList,
  {1c764bea-b4a7-4f8b-8d71-9afb56aa6316}, !- Handle
  {1cb869ec-4bfb-4b61-91d1-d363ed6dd9d0}, !- HVAC Component
  {e15ac0fa-ab9e-4f62-9eb8-7a161e6ec65c}; !- Port 1

OS:PortList,
  {8648f0ff-0a01-41c6-8561-d457cf97803d}, !- Handle
  {1cb869ec-4bfb-4b61-91d1-d363ed6dd9d0}; !- HVAC Component

OS:PortList,
  {90f25f8d-4cbe-40b2-a4bb-930723c3ad6a}, !- Handle
  {1cb869ec-4bfb-4b61-91d1-d363ed6dd9d0}, !- HVAC Component
  {9990f800-b186-4a05-9d62-33ce916a8964}; !- Port 1

OS:Sizing:Zone,
  {b1ccaaf7-b9b6-48e3-b73e-91996ff974b8}, !- Handle
  {1cb869ec-4bfb-4b61-91d1-d363ed6dd9d0}, !- Zone or ZoneList Name
  SupplyAirTemperature,                   !- Zone Cooling Design Supply Air Temperature Input Method
  14,                                     !- Zone Cooling Design Supply Air Temperature {C}
  11.11,                                  !- Zone Cooling Design Supply Air Temperature Difference {deltaC}
  SupplyAirTemperature,                   !- Zone Heating Design Supply Air Temperature Input Method
  40,                                     !- Zone Heating Design Supply Air Temperature {C}
  11.11,                                  !- Zone Heating Design Supply Air Temperature Difference {deltaC}
  0.0085,                                 !- Zone Cooling Design Supply Air Humidity Ratio {kg-H2O/kg-air}
  0.008,                                  !- Zone Heating Design Supply Air Humidity Ratio {kg-H2O/kg-air}
  ,                                       !- Zone Heating Sizing Factor
  ,                                       !- Zone Cooling Sizing Factor
  DesignDay,                              !- Cooling Design Air Flow Method
  ,                                       !- Cooling Design Air Flow Rate {m3/s}
  ,                                       !- Cooling Minimum Air Flow per Zone Floor Area {m3/s-m2}
  ,                                       !- Cooling Minimum Air Flow {m3/s}
  ,                                       !- Cooling Minimum Air Flow Fraction
  DesignDay,                              !- Heating Design Air Flow Method
  ,                                       !- Heating Design Air Flow Rate {m3/s}
  ,                                       !- Heating Maximum Air Flow per Zone Floor Area {m3/s-m2}
  ,                                       !- Heating Maximum Air Flow {m3/s}
  ,                                       !- Heating Maximum Air Flow Fraction
  No,                                     !- Account for Dedicated Outdoor Air System
  NeutralSupplyAir,                       !- Dedicated Outdoor Air System Control Strategy
  autosize,                               !- Dedicated Outdoor Air Low Setpoint Temperature for Design {C}
  autosize,                               !- Dedicated Outdoor Air High Setpoint Temperature for Design {C}
  Sensible Load Only No Latent Load,      !- Zone Load Sizing Method
  HumidityRatioDifference,                !- Zone Latent Cooling Design Supply Air Humidity Ratio Input Method
  ,                                       !- Zone Dehumidification Design Supply Air Humidity Ratio {kgWater/kgDryAir}
  0.005,                                  !- Zone Cooling Design Supply Air Humidity Ratio Difference {kgWater/kgDryAir}
  HumidityRatioDifference,                !- Zone Latent Heating Design Supply Air Humidity Ratio Input Method
  ,                                       !- Zone Humidification Design Supply Air Humidity Ratio {kgWater/kgDryAir}
  0.005,                                  !- Zone Humidification Design Supply Air Humidity Ratio Difference {kgWater/kgDryAir}
  ,                                       !- Zone Humidistat Dehumidification Set Point Schedule Name
  ,                                       !- Zone Humidistat Humidification Set Point Schedule Name
  ,                                       !- Design Zone Air Distribution Effectiveness in Cooling Mode
  ,                                       !- Design Zone Air Distribution Effectiveness in Heating Mode
  ,                                       !- Design Zone Secondary Recirculation Fraction {dimensionless}
  ,                                       !- Design Minimum Zone Ventilation Efficiency {dimensionless}
  Coincident;                             !- Sizing Option

OS:ZoneHVAC:EquipmentList,
  {f5fd2e21-c6f8-4a2b-9111-f1b55afb4fb7}, !- Handle
  Zone HVAC Equipment List 1,             !- Name
  {1cb869ec-4bfb-4b61-91d1-d363ed6dd9d0}, !- Thermal Zone
  ,                                       !- Load Distribution Scheme
  {de30fd4e-bb4a-46e7-b76e-ab36ec26ed55}, !- Zone Equipment 1
  1,                                      !- Zone Equipment Cooling Sequence 1
  1,                                      !- Zone Equipment Heating or No-Load Sequence 1
  {a28c3589-d073-4076-82fd-3d45ba182900}, !- Zone Equipment Sequential Cooling Fraction Schedule Name 1
  {617733e8-49ef-44ac-94cc-ee2e37720216}; !- Zone Equipment Sequential Heating Fraction Schedule Name 1

OS:AdditionalProperties,
  {ef61a864-ec0d-4ce6-87d3-1be5db197cb1}, !- Handle
  {1cb869ec-4bfb-4b61-91d1-d363ed6dd9d0}, !- Object Name
  ObjectType,                             !- Feature Name 1
  String,                                 !- Feature Data Type 1
  conditioned space;                      !- Feature Value 1

OS:Space,
  {6bd64854-fa67-41e5-8f0c-9a0c147f3850}, !- Handle
  conditioned space 1,                    !- Name
  ,                                       !- Space Type Name
  ,                                       !- Default Construction Set Name
  ,                                       !- Default Schedule Set Name
  ,                                       !- Direction of Relative North {deg}
  ,                                       !- X Origin {m}
  ,                                       !- Y Origin {m}
  ,                                       !- Z Origin {m}
  ,                                       !- Building Story Name
  {1cb869ec-4bfb-4b61-91d1-d363ed6dd9d0}, !- Thermal Zone Name
  ,                                       !- Part of Total Floor Area
  ,                                       !- Design Specification Outdoor Air Object Name
  ,                                       !- Building Unit Name
  346.03186535424;                        !- Volume {m3}

OS:Schedule:Ruleset,
  {eff3c40b-3c05-48cd-b634-7e0f8c95554d}, !- Handle
  heating setpoint,                       !- Name
  {29f72616-b3c0-40e1-8d2a-9ff982035509}, !- Schedule Type Limits Name
  {afec0984-32ca-4c9a-a455-7010f8dd282e}; !- Default Day Schedule Name

OS:Schedule:Day,
  {afec0984-32ca-4c9a-a455-7010f8dd282e}, !- Handle
  heating setpoint default day,           !- Name
  {29f72616-b3c0-40e1-8d2a-9ff982035509}, !- Schedule Type Limits Name
  ,                                       !- Interpolate to Timestep
  24,                                     !- Hour 1
  0,                                      !- Minute 1
  0;                                      !- Value Until Time 1

OS:Schedule:Rule,
  {db2c214b-d19d-429c-8142-11711039085c}, !- Handle
  heating setpoint allday rule,           !- Name
  {eff3c40b-3c05-48cd-b634-7e0f8c95554d}, !- Schedule Ruleset Name
  0,                                      !- Rule Order
  {2f7be5f9-bada-477c-a6e5-3248f8ab20bd}, !- Day Schedule Name
  Yes,                                    !- Apply Sunday
  Yes,                                    !- Apply Monday
  Yes,                                    !- Apply Tuesday
  Yes,                                    !- Apply Wednesday
  Yes,                                    !- Apply Thursday
  Yes,                                    !- Apply Friday
  Yes,                                    !- Apply Saturday
  DateRange,                              !- Date Specification Type
  1,                                      !- Start Month
  1,                                      !- Start Day
  12,                                     !- End Month
  31;                                     !- End Day

OS:Schedule:Day,
  {2f7be5f9-bada-477c-a6e5-3248f8ab20bd}, !- Handle
  heating setpoint day,                   !- Name
  {29f72616-b3c0-40e1-8d2a-9ff982035509}, !- Schedule Type Limits Name
  ,                                       !- Interpolate to Timestep
  24,                                     !- Hour 1
  0,                                      !- Minute 1
  20;                                     !- Value Until Time 1

OS:Schedule:Ruleset,
  {e73532e6-c546-4615-884f-aeeae7a8a63c}, !- Handle
  cooling setpoint,                       !- Name
  {29f72616-b3c0-40e1-8d2a-9ff982035509}, !- Schedule Type Limits Name
  {e9ea2553-b0a4-42b2-8fb5-d9cabf8b7f86}; !- Default Day Schedule Name

OS:Schedule:Day,
  {e9ea2553-b0a4-42b2-8fb5-d9cabf8b7f86}, !- Handle
  cooling setpoint default day,           !- Name
  {29f72616-b3c0-40e1-8d2a-9ff982035509}, !- Schedule Type Limits Name
  ,                                       !- Interpolate to Timestep
  24,                                     !- Hour 1
  0,                                      !- Minute 1
  0;                                      !- Value Until Time 1

OS:Schedule:Rule,
  {269eb533-0034-4443-9d58-b94eeb97bf00}, !- Handle
  cooling setpoint allday rule,           !- Name
  {e73532e6-c546-4615-884f-aeeae7a8a63c}, !- Schedule Ruleset Name
  0,                                      !- Rule Order
  {0663da29-5c83-4066-ae81-320186777852}, !- Day Schedule Name
  Yes,                                    !- Apply Sunday
  Yes,                                    !- Apply Monday
  Yes,                                    !- Apply Tuesday
  Yes,                                    !- Apply Wednesday
  Yes,                                    !- Apply Thursday
  Yes,                                    !- Apply Friday
  Yes,                                    !- Apply Saturday
  DateRange,                              !- Date Specification Type
  1,                                      !- Start Month
  1,                                      !- Start Day
  12,                                     !- End Month
  31;                                     !- End Day

OS:Schedule:Day,
  {0663da29-5c83-4066-ae81-320186777852}, !- Handle
  cooling setpoint day,                   !- Name
  {29f72616-b3c0-40e1-8d2a-9ff982035509}, !- Schedule Type Limits Name
  ,                                       !- Interpolate to Timestep
  24,                                     !- Hour 1
  0,                                      !- Minute 1
  25.5555555555556;                       !- Value Until Time 1

OS:ThermostatSetpoint:DualSetpoint,
  {521ea224-94f9-44ff-86b1-9887884f2c4b}, !- Handle
  conditioned space temperature setpoint, !- Name
  {eff3c40b-3c05-48cd-b634-7e0f8c95554d}, !- Heating Setpoint Temperature Schedule Name
  {e73532e6-c546-4615-884f-aeeae7a8a63c}, !- Cooling Setpoint Temperature Schedule Name
  0;                                      !- Temperature Difference Between Cutout And Setpoint {deltaC}

OS:ScheduleTypeLimits,
  {29f72616-b3c0-40e1-8d2a-9ff982035509}, !- Handle
  Temperature,                            !- Name
  ,                                       !- Lower Limit Value
  ,                                       !- Upper Limit Value
  Continuous,                             !- Numeric Type
  Temperature;                            !- Unit Type

OS:Surface,
  {164a1297-4810-45d7-8019-2390d616249e}, !- Handle
  Roof1,                                  !- Name
  RoofCeiling,                            !- Surface Type
  {52878aa3-6a9b-4a36-8142-94c66d9cf6d6}, !- Construction Name
  {d1941d3b-d96d-4372-9f17-7487dc3f8b50}, !- Space Name
  Outdoors,                               !- Outside Boundary Condition
  ,                                       !- Outside Boundary Condition Object
  SunExposed,                             !- Sun Exposure
  WindExposed,                            !- Wind Exposure
  ,                                       !- View Factor to Ground
  ,                                       !- Number of Vertices
  1.41860524590607, 10.3253389825797, 3.048, !- X,Y,Z Vertex 1 {m}
  1.41860524590607, 2.35891414550252, 7.03121241853859, !- X,Y,Z Vertex 2 {m}
  10.3253389825797, 2.35891414550251, 7.03121241853859, !- X,Y,Z Vertex 3 {m}
  10.3253389825797, 10.3253389825797, 3.048; !- X,Y,Z Vertex 4 {m}

OS:AdditionalProperties,
  {4c0c3358-81f7-4b3b-ac5e-39cef5b26979}, !- Handle
  {164a1297-4810-45d7-8019-2390d616249e}, !- Object Name
  Length,                                 !- Feature Name 1
  Double,                                 !- Feature Data Type 1
  29.221567377538118,                     !- Feature Value 1
  Width,                                  !- Feature Name 2
  Double,                                 !- Feature Data Type 2
  29.221567377538118,                     !- Feature Value 2
  Azimuth,                                !- Feature Name 3
  Integer,                                !- Feature Data Type 3
  0,                                      !- Feature Value 3
  Tilt,                                   !- Feature Name 4
  Double,                                 !- Feature Data Type 4
  0.5,                                    !- Feature Value 4
  SurfaceType,                            !- Feature Name 5
  String,                                 !- Feature Data Type 5
  Roof;                                   !- Feature Value 5

OS:ThermalZone,
  {eb4363a2-d535-46ec-aaea-86e85c70db58}, !- Handle
  attic - vented,                         !- Name
  1,                                      !- Multiplier
  ,                                       !- Ceiling Height {m}
  126.002877704413,                       !- Volume {m3}
  ,                                       !- Floor Area {m2}
  ,                                       !- Zone Inside Convection Algorithm
  ,                                       !- Zone Outside Convection Algorithm
  ,                                       !- Zone Conditioning Equipment List Name
  {8bec732f-d690-4919-a157-b5b282d91fde}, !- Zone Air Inlet Port List
  {e9b7afd3-afc5-4d11-804a-c9e10dd91e7b}, !- Zone Air Exhaust Port List
  {4fa396e0-07ba-4f3a-9dd1-c3fc1f0c4d85}, !- Zone Air Node Name
  {d156d531-70e6-4ed1-b0ec-3bff1df64aee}, !- Zone Return Air Port List
  ,                                       !- Primary Daylighting Control Name
  ,                                       !- Fraction of Zone Controlled by Primary Daylighting Control
  ,                                       !- Secondary Daylighting Control Name
  ,                                       !- Fraction of Zone Controlled by Secondary Daylighting Control
  ,                                       !- Illuminance Map Name
  ,                                       !- Group Rendering Name
  ,                                       !- Thermostat Name
  No;                                     !- Use Ideal Air Loads

OS:Node,
  {220d9d64-c5f1-4426-bae1-97d954788623}, !- Handle
  Node 2,                                 !- Name
  {4fa396e0-07ba-4f3a-9dd1-c3fc1f0c4d85}, !- Inlet Port
  ;                                       !- Outlet Port

OS:Connection,
  {4fa396e0-07ba-4f3a-9dd1-c3fc1f0c4d85}, !- Handle
  {eb4363a2-d535-46ec-aaea-86e85c70db58}, !- Source Object
  11,                                     !- Outlet Port
  {220d9d64-c5f1-4426-bae1-97d954788623}, !- Target Object
  2;                                      !- Inlet Port

OS:PortList,
  {8bec732f-d690-4919-a157-b5b282d91fde}, !- Handle
  {eb4363a2-d535-46ec-aaea-86e85c70db58}; !- HVAC Component

OS:PortList,
  {e9b7afd3-afc5-4d11-804a-c9e10dd91e7b}, !- Handle
  {eb4363a2-d535-46ec-aaea-86e85c70db58}; !- HVAC Component

OS:PortList,
  {d156d531-70e6-4ed1-b0ec-3bff1df64aee}, !- Handle
  {eb4363a2-d535-46ec-aaea-86e85c70db58}; !- HVAC Component

OS:Sizing:Zone,
  {e7203aab-6fa2-4f97-9930-071a3b08f898}, !- Handle
  {eb4363a2-d535-46ec-aaea-86e85c70db58}, !- Zone or ZoneList Name
  SupplyAirTemperature,                   !- Zone Cooling Design Supply Air Temperature Input Method
  14,                                     !- Zone Cooling Design Supply Air Temperature {C}
  11.11,                                  !- Zone Cooling Design Supply Air Temperature Difference {deltaC}
  SupplyAirTemperature,                   !- Zone Heating Design Supply Air Temperature Input Method
  40,                                     !- Zone Heating Design Supply Air Temperature {C}
  11.11,                                  !- Zone Heating Design Supply Air Temperature Difference {deltaC}
  0.0085,                                 !- Zone Cooling Design Supply Air Humidity Ratio {kg-H2O/kg-air}
  0.008,                                  !- Zone Heating Design Supply Air Humidity Ratio {kg-H2O/kg-air}
  ,                                       !- Zone Heating Sizing Factor
  ,                                       !- Zone Cooling Sizing Factor
  DesignDay,                              !- Cooling Design Air Flow Method
  ,                                       !- Cooling Design Air Flow Rate {m3/s}
  ,                                       !- Cooling Minimum Air Flow per Zone Floor Area {m3/s-m2}
  ,                                       !- Cooling Minimum Air Flow {m3/s}
  ,                                       !- Cooling Minimum Air Flow Fraction
  DesignDay,                              !- Heating Design Air Flow Method
  ,                                       !- Heating Design Air Flow Rate {m3/s}
  ,                                       !- Heating Maximum Air Flow per Zone Floor Area {m3/s-m2}
  ,                                       !- Heating Maximum Air Flow {m3/s}
  ,                                       !- Heating Maximum Air Flow Fraction
  No,                                     !- Account for Dedicated Outdoor Air System
  NeutralSupplyAir,                       !- Dedicated Outdoor Air System Control Strategy
  autosize,                               !- Dedicated Outdoor Air Low Setpoint Temperature for Design {C}
  autosize,                               !- Dedicated Outdoor Air High Setpoint Temperature for Design {C}
  Sensible Load Only No Latent Load,      !- Zone Load Sizing Method
  HumidityRatioDifference,                !- Zone Latent Cooling Design Supply Air Humidity Ratio Input Method
  ,                                       !- Zone Dehumidification Design Supply Air Humidity Ratio {kgWater/kgDryAir}
  0.005,                                  !- Zone Cooling Design Supply Air Humidity Ratio Difference {kgWater/kgDryAir}
  HumidityRatioDifference,                !- Zone Latent Heating Design Supply Air Humidity Ratio Input Method
  ,                                       !- Zone Humidification Design Supply Air Humidity Ratio {kgWater/kgDryAir}
  0.005,                                  !- Zone Humidification Design Supply Air Humidity Ratio Difference {kgWater/kgDryAir}
  ,                                       !- Zone Humidistat Dehumidification Set Point Schedule Name
  ,                                       !- Zone Humidistat Humidification Set Point Schedule Name
  ,                                       !- Design Zone Air Distribution Effectiveness in Cooling Mode
  ,                                       !- Design Zone Air Distribution Effectiveness in Heating Mode
  ,                                       !- Design Zone Secondary Recirculation Fraction {dimensionless}
  ,                                       !- Design Minimum Zone Ventilation Efficiency {dimensionless}
  Coincident;                             !- Sizing Option

OS:ZoneHVAC:EquipmentList,
  {70975d07-8eb3-4761-b3da-ba49d1fc711e}, !- Handle
  Zone HVAC Equipment List 2,             !- Name
  {eb4363a2-d535-46ec-aaea-86e85c70db58}; !- Thermal Zone

OS:AdditionalProperties,
  {96981ae8-c14c-418d-8d65-61f2b67236ce}, !- Handle
  {eb4363a2-d535-46ec-aaea-86e85c70db58}, !- Object Name
  ObjectType,                             !- Feature Name 1
  String,                                 !- Feature Data Type 1
  attic - vented;                         !- Feature Value 1

OS:Space,
  {d1941d3b-d96d-4372-9f17-7487dc3f8b50}, !- Handle
  attic - vented 1,                       !- Name
  ,                                       !- Space Type Name
  ,                                       !- Default Construction Set Name
  ,                                       !- Default Schedule Set Name
  ,                                       !- Direction of Relative North {deg}
  ,                                       !- X Origin {m}
  ,                                       !- Y Origin {m}
  ,                                       !- Z Origin {m}
  ,                                       !- Building Story Name
  {eb4363a2-d535-46ec-aaea-86e85c70db58}, !- Thermal Zone Name
  ,                                       !- Part of Total Floor Area
  ,                                       !- Design Specification Outdoor Air Object Name
  ,                                       !- Building Unit Name
  126.002877704413;                       !- Volume {m3}

OS:Material,
  {dcc3dbda-cb74-4b9b-99cf-cca18c8d4ae7}, !- Handle
  asphalt or fiberglass shingles,         !- Name
  Rough,                                  !- Roughness
  0.00635,                                !- Thickness {m}
  0.162714,                               !- Conductivity {W/m-K}
  1121.4,                                 !- Density {kg/m3}
  1465.45,                                !- Specific Heat {J/kg-K}
  0.9,                                    !- Thermal Absorptance
  0.85,                                   !- Solar Absorptance