
OS:Version,
  {b615809b-1731-4180-8d1b-48ef51049e1d}, !- Handle
  3.9.0;                                  !- Version Identifier

OS:SimulationControl,
  {17c68493-7a95-4420-89a0-894e1e12831b}, !- Handle
  ,                                       !- Do Zone Sizing Calculation
  ,                                       !- Do System Sizing Calculation
  ,                                       !- Do Plant Sizing Calculation
  No;                                     !- Run Simulation for Sizing Periods

OS:Timestep,
  {d46d68b6-1005-4be1-b27e-b3d8a12ff1a0}, !- Handle
  1;                                      !- Number of Timesteps per Hour

OS:ShadowCalculation,
  {2d716761-d4e2-4462-9670-2453ce0936eb}, !- Handle
  PolygonClipping,                        !- Shading Calculation Method
  ,                                       !- Shading Calculation Update Frequency Method
  20,                                     !- Shading Calculation Update Frequency
  200,                                    !- Maximum Figures in Shadow Overlap Calculations
  ,                                       !- Polygon Clipping Algorithm
  512,                                    !- Pixel Counting Resolution
  ,                                       !- Sky Diffuse Modeling Algorithm
  No,                                     !- Output External Shading Calculation Results
  No,                                     !- Disable Self-Shading Within Shading Zone Groups
  No;                                     !- Disable Self-Shading From Shading Zone Groups to Other Zones

OS:SurfaceConvectionAlgorithm:Outside,
  {dd0cc0ac-95b9-47cf-bdba-168f08d3fec4}, !- Handle
  DOE-2;                                  !- Algorithm

OS:SurfaceConvectionAlgorithm:Inside,
  {ddb5dda0-4702-47dd-9f3c-b8328923f8f9}, !- Handle
  TARP;                                   !- Algorithm

OS:ZoneCapacitanceMultiplier:ResearchSpecial,
  {82e4deb1-51cf-4f53-83b6-1b1d7102f028}, !- Handle
  7,                                      !- Temperature Capacity Multiplier
  15,                                     !- Humidity Capacity Multiplier
  ;                                       !- Carbon Dioxide Capacity Multiplier

OS:ConvergenceLimits,
  {529b8d30-cf16-4257-90a8-ec0daaf03da4}, !- Handle
  0;                                      !- Minimum System Timestep {minutes}

OS:RunPeriod,
  {4391373b-5fff-4483-b91f-3eb9b4dc5358}, !- Handle
  Run Period 1,                           !- Name
  1,                                      !- Begin Month
  1,                                      !- Begin Day of Month
  12,                                     !- End Month
  31,                                     !- End Day of Month
  ,                                       !- Use Weather File Holidays and Special Days
  ,                                       !- Use Weather File Daylight Saving Period
  ,                                       !- Apply Weekend Holiday Rule
  ,                                       !- Use Weather File Rain Indicators
  ,                                       !- Use Weather File Snow Indicators
  ;                                       !- Number of Times Runperiod to be Repeated

OS:PerformancePrecisionTradeoffs,
  {aee4ebb7-4590-434c-9b82-266c4c7eed77}, !- Handle
  ,                                       !- Use Coil Direct Solutions
  CarrollMRT;                             !- Zone Radiant Exchange Algorithm

OS:WeatherFile,
  {fff13e8a-7da0-403c-8cc8-6ba20dad1e42}, !- Handle
  Buffalo Niagara Intl Ap,                !- City
  NY,                                     !- State Province Region
  USA,                                    !- Country
  TMY3,                                   !- Data Source
  725280,                                 !- WMO Number
  42.93,                                  !- Latitude {deg}
  -78.73,                                 !- Longitude {deg}
  -5,                                     !- Time Zone {hr}
  215,                                    !- Elevation {m}
  /Users/nmoore/github/urbanopt-example-geojson-project/example_project/weather/USA_NY_Buffalo-Greater.Buffalo.Intl.AP.725280_TMY3.epw, !- Url
  6B50E0FF,                               !- Checksum
  ,                                       !- Start Date Actual Year
  Sunday;                                 !- Start Day of Week

OS:YearDescription,
  {673b0ad0-4fc3-4dee-8261-9eba112caf7d}, !- Handle
  2007,                                   !- Calendar Year
  ,                                       !- Day of Week for Start Day
  ;                                       !- Is Leap Year

OS:Site,
  {4b0f448a-61bf-487b-8125-90e386456b3a}, !- Handle
  Buffalo Niagara Intl Ap_NY,             !- Name
  42.93,                                  !- Latitude {deg}
  -78.73,                                 !- Longitude {deg}
  -5,                                     !- Time Zone {hr}
  215,                                    !- Elevation {m}
  Suburbs,                                !- Terrain
  Yes;                                    !- Keep Site Location Information

OS:RunPeriodControl:DaylightSavingTime,
  {8fccafc3-5135-4635-9146-61e11f711a6f}, !- Handle
  Mar 12,                                 !- Start Date
  Nov 5;                                  !- End Date

OS:Site:GroundTemperature:Shallow,
  {435d023c-749d-4c84-a2be-c3faa782957b}, !- Handle
  4.30207395723828,                       !- January Surface Ground Temperature {C}
  2.29327249652502,                       !- February Surface Ground Temperature {C}
  2.13240047156047,                       !- March Surface Ground Temperature {C}
  3.08567940719286,                       !- April Surface Ground Temperature {C}
  6.91256312497526,                       !- May Surface Ground Temperature {C}
  10.7216195949507,                       !- June Surface Ground Temperature {C}
  14.0238679822574,                       !- July Surface Ground Temperature {C}
  16.1157611184724,                       !- August Surface Ground Temperature {C}
  16.2934789303462,                       !- September Surface Ground Temperature {C}
  14.5920754632847,                       !- October Surface Ground Temperature {C}
  11.374036348653,                        !- November Surface Ground Temperature {C}
  7.68182621661674;                       !- December Surface Ground Temperature {C}

OS:ThermalZone,
  {4b13f0a2-9f34-4e26-9758-50941b4b30b7}, !- Handle
  conditioned space,                      !- Name
  1,                                      !- Multiplier
  ,                                       !- Ceiling Height {m}
  692.06373070848,                        !- Volume {m3}
  ,                                       !- Floor Area {m2}
  ,                                       !- Zone Inside Convection Algorithm
  ,                                       !- Zone Outside Convection Algorithm
  ,                                       !- Zone Conditioning Equipment List Name
  {de9c4c6e-14b3-47c0-a8f4-f7aafdb0c6ba}, !- Zone Air Inlet Port List
  {1c7293e3-c64c-4fcf-a512-967988120b1c}, !- Zone Air Exhaust Port List
  {0397911a-687d-48de-88bf-936871c61dbb}, !- Zone Air Node Name
  {9e97bb08-49cd-4b51-a6fc-a5205a73af60}, !- Zone Return Air Port List
  ,                                       !- Primary Daylighting Control Name
  ,                                       !- Fraction of Zone Controlled by Primary Daylighting Control
  ,                                       !- Secondary Daylighting Control Name
  ,                                       !- Fraction of Zone Controlled by Secondary Daylighting Control
  ,                                       !- Illuminance Map Name
  ,                                       !- Group Rendering Name
  {8007b8c2-374a-4170-a086-5fc4b83b1551}, !- Thermostat Name
  No;                                     !- Use Ideal Air Loads

OS:Node,
  {24ab17bc-3f54-4e6f-a805-57e600209e07}, !- Handle
  Node 1,                                 !- Name
  {0397911a-687d-48de-88bf-936871c61dbb}, !- Inlet Port
  ;                                       !- Outlet Port

OS:Connection,
  {0397911a-687d-48de-88bf-936871c61dbb}, !- Handle
  {4b13f0a2-9f34-4e26-9758-50941b4b30b7}, !- Source Object
  11,                                     !- Outlet Port
  {24ab17bc-3f54-4e6f-a805-57e600209e07}, !- Target Object
  2;                                      !- Inlet Port

OS:PortList,
  {de9c4c6e-14b3-47c0-a8f4-f7aafdb0c6ba}, !- Handle
  {4b13f0a2-9f34-4e26-9758-50941b4b30b7}; !- HVAC Component

OS:PortList,
  {1c7293e3-c64c-4fcf-a512-967988120b1c}, !- Handle
  {4b13f0a2-9f34-4e26-9758-50941b4b30b7}; !- HVAC Component

OS:PortList,
  {9e97bb08-49cd-4b51-a6fc-a5205a73af60}, !- Handle
  {4b13f0a2-9f34-4e26-9758-50941b4b30b7}; !- HVAC Component

OS:Sizing:Zone,
  {4a7657f7-7096-4cd1-84ad-86514a8b57b4}, !- Handle
  {4b13f0a2-9f34-4e26-9758-50941b4b30b7}, !- Zone or ZoneList Name
  SupplyAirTemperature,                   !- Zone Cooling Design Supply Air Temperature Input Method
  14,                                     !- Zone Cooling Design Supply Air Temperature {C}
  11.11,                                  !- Zone Cooling Design Supply Air Temperature Difference {deltaC}
  SupplyAirTemperature,                   !- Zone Heating Design Supply Air Temperature Input Method
  40,                                     !- Zone Heating Design Supply Air Temperature {C}
  11.11,                                  !- Zone Heating Design Supply Air Temperature Difference {deltaC}
  0.0085,                                 !- Zone Cooling Design Supply Air Humidity Ratio {kg-H2O/kg-air}
  0.008,                                  !- Zone Heating Design Supply Air Humidity Ratio {kg-H2O/kg-air}
  ,                                       !- Zone Heating Sizing Factor
  ,                                       !- Zone Cooling Sizing Factor
  DesignDay,                              !- Cooling Design Air Flow Method
  ,                                       !- Cooling Design Air Flow Rate {m3/s}
  ,                                       !- Cooling Minimum Air Flow per Zone Floor Area {m3/s-m2}
  ,                                       !- Cooling Minimum Air Flow {m3/s}
  ,                                       !- Cooling Minimum Air Flow Fraction
  DesignDay,                              !- Heating Design Air Flow Method
  ,                                       !- Heating Design Air Flow Rate {m3/s}
  ,                                       !- Heating Maximum Air Flow per Zone Floor Area {m3/s-m2}
  ,                                       !- Heating Maximum Air Flow {m3/s}
  ,                                       !- Heating Maximum Air Flow Fraction
  No,                                     !- Account for Dedicated Outdoor Air System
  NeutralSupplyAir,                       !- Dedicated Outdoor Air System Control Strategy
  autosize,                               !- Dedicated Outdoor Air Low Setpoint Temperature for Design {C}
  autosize,                               !- Dedicated Outdoor Air High Setpoint Temperature for Design {C}
  Sensible Load Only No Latent Load,      !- Zone Load Sizing Method
  HumidityRatioDifference,                !- Zone Latent Cooling Design Supply Air Humidity Ratio Input Method
  ,                                       !- Zone Dehumidification Design Supply Air Humidity Ratio {kgWater/kgDryAir}
  0.005,                                  !- Zone Cooling Design Supply Air Humidity Ratio Difference {kgWater/kgDryAir}
  HumidityRatioDifference,                !- Zone Latent Heating Design Supply Air Humidity Ratio Input Method
  ,                                       !- Zone Humidification Design Supply Air Humidity Ratio {kgWater/kgDryAir}
  0.005,                                  !- Zone Humidification Design Supply Air Humidity Ratio Difference {kgWater/kgDryAir}
  ,                                       !- Zone Humidistat Dehumidification Set Point Schedule Name
  ,                                       !- Zone Humidistat Humidification Set Point Schedule Name
  ,                                       !- Design Zone Air Distribution Effectiveness in Cooling Mode
  ,                                       !- Design Zone Air Distribution Effectiveness in Heating Mode
  ,                                       !- Design Zone Secondary Recirculation Fraction {dimensionless}
  ,                                       !- Design Minimum Zone Ventilation Efficiency {dimensionless}
  Coincident;                             !- Sizing Option

OS:ZoneHVAC:EquipmentList,
  {73bfd3a4-0991-41b2-bdf0-0db9a3206338}, !- Handle
  Zone HVAC Equipment List 1,             !- Name
  {4b13f0a2-9f34-4e26-9758-50941b4b30b7}, !- Thermal Zone
  ,                                       !- Load Distribution Scheme
  {02a5125b-225e-40a0-bcd5-f42c84f2adf9}, !- Zone Equipment 1
  1,                                      !- Zone Equipment Cooling Sequence 1
  1,                                      !- Zone Equipment Heating or No-Load Sequence 1
  {fadc8be8-2657-4634-b153-946c871ef641}, !- Zone Equipment Sequential Cooling Fraction Schedule Name 1
  {ab9d4592-e45b-44b2-8b2d-b6f6d1c15f28}; !- Zone Equipment Sequential Heating Fraction Schedule Name 1

OS:AdditionalProperties,
  {2cd3174b-a0fc-466f-9a19-291b719671cb}, !- Handle
  {4b13f0a2-9f34-4e26-9758-50941b4b30b7}, !- Object Name
  ObjectType,                             !- Feature Name 1
  String,                                 !- Feature Data Type 1
  conditioned space;                      !- Feature Value 1

OS:Space,
  {238e5d73-cbc2-4aba-a04e-88ab6e1c1f6f}, !- Handle
  conditioned space 1,                    !- Name
  ,                                       !- Space Type Name
  ,                                       !- Default Construction Set Name
  ,                                       !- Default Schedule Set Name
  ,                                       !- Direction of Relative North {deg}
  ,                                       !- X Origin {m}
  ,                                       !- Y Origin {m}
  ,                                       !- Z Origin {m}
  ,                                       !- Building Story Name
  {4b13f0a2-9f34-4e26-9758-50941b4b30b7}, !- Thermal Zone Name
  ,                                       !- Part of Total Floor Area
  ,                                       !- Design Specification Outdoor Air Object Name
  ,                                       !- Building Unit Name
  692.06373070848;                        !- Volume {m3}

OS:Schedule:Ruleset,
  {358bf407-f351-4ed3-980d-d2778564615e}, !- Handle
  heating setpoint,                       !- Name
  {78810cb6-3233-4a42-9dd8-2094cc3bb952}, !- Schedule Type Limits Name
  {2c74ca3c-adce-4354-89a4-bb3067511467}; !- Default Day Schedule Name

OS:Schedule:Day,
  {2c74ca3c-adce-4354-89a4-bb3067511467}, !- Handle
  heating setpoint default day,           !- Name
  {78810cb6-3233-4a42-9dd8-2094cc3bb952}, !- Schedule Type Limits Name
  ,                                       !- Interpolate to Timestep
  24,                                     !- Hour 1
  0,                                      !- Minute 1
  0;                                      !- Value Until Time 1

OS:Schedule:Rule,
  {108e07a2-3dd5-426a-877a-fa9b8452a1fd}, !- Handle
  heating setpoint allday rule,           !- Name
  {358bf407-f351-4ed3-980d-d2778564615e}, !- Schedule Ruleset Name
  0,                                      !- Rule Order
  {74468fa3-c267-4c68-a012-0f634932675f}, !- Day Schedule Name
  Yes,                                    !- Apply Sunday
  Yes,                                    !- Apply Monday
  Yes,                                    !- Apply Tuesday
  Yes,                                    !- Apply Wednesday
  Yes,                                    !- Apply Thursday
  Yes,                                    !- Apply Friday
  Yes,                                    !- Apply Saturday
  DateRange,                              !- Date Specification Type
  1,                                      !- Start Month
  1,                                      !- Start Day
  12,                                     !- End Month
  31;                                     !- End Day

OS:Schedule:Day,
  {74468fa3-c267-4c68-a012-0f634932675f}, !- Handle
  heating setpoint day,                   !- Name
  {78810cb6-3233-4a42-9dd8-2094cc3bb952}, !- Schedule Type Limits Name
  ,                                       !- Interpolate to Timestep
  24,                                     !- Hour 1
  0,                                      !- Minute 1
  20;                                     !- Value Until Time 1

OS:Schedule:Ruleset,
  {563a37e7-40cb-4835-bf2a-bc7f7d7cf52b}, !- Handle
  cooling setpoint,                       !- Name
  {78810cb6-3233-4a42-9dd8-2094cc3bb952}, !- Schedule Type Limits Name
  {5831c2be-7019-45f4-a116-d0a3c0c2d972}; !- Default Day Schedule Name

OS:Schedule:Day,
  {5831c2be-7019-45f4-a116-d0a3c0c2d972}, !- Handle
  cooling setpoint default day,           !- Name
  {78810cb6-3233-4a42-9dd8-2094cc3bb952}, !- Schedule Type Limits Name
  ,                                       !- Interpolate to Timestep
  24,                                     !- Hour 1
  0,                                      !- Minute 1
  0;                                      !- Value Until Time 1

OS:Schedule:Rule,
  {873988de-7e06-4b0c-852d-d2276da591e8}, !- Handle
  cooling setpoint allday rule,           !- Name
  {563a37e7-40cb-4835-bf2a-bc7f7d7cf52b}, !- Schedule Ruleset Name
  0,                                      !- Rule Order
  {822ce7fb-7568-43dd-8374-6118f5fed11f}, !- Day Schedule Name
  Yes,                                    !- Apply Sunday
  Yes,                                    !- Apply Monday
  Yes,                                    !- Apply Tuesday
  Yes,                                    !- Apply Wednesday
  Yes,                                    !- Apply Thursday
  Yes,                                    !- Apply Friday
  Yes,                                    !- Apply Saturday
  DateRange,                              !- Date Specification Type
  1,                                      !- Start Month
  1,                                      !- Start Day
  12,                                     !- End Month
  31;                                     !- End Day

OS:Schedule:Day,
  {822ce7fb-7568-43dd-8374-6118f5fed11f}, !- Handle
  cooling setpoint day,                   !- Name
  {78810cb6-3233-4a42-9dd8-2094cc3bb952}, !- Schedule Type Limits Name
  ,                                       !- Interpolate to Timestep
  24,                                     !- Hour 1
  0,                                      !- Minute 1
  25.5555555555556;                       !- Value Until Time 1

OS:ThermostatSetpoint:DualSetpoint,
  {8007b8c2-374a-4170-a086-5fc4b83b1551}, !- Handle
  conditioned space temperature setpoint, !- Name
  {358bf407-f351-4ed3-980d-d2778564615e}, !- Heating Setpoint Temperature Schedule Name
  {563a37e7-40cb-4835-bf2a-bc7f7d7cf52b}, !- Cooling Setpoint Temperature Schedule Name
  0;                                      !- Temperature Difference Between Cutout And Setpoint {deltaC}

OS:ScheduleTypeLimits,
  {78810cb6-3233-4a42-9dd8-2094cc3bb952}, !- Handle
  Temperature,                            !- Name
  ,                                       !- Lower Limit Value
  ,                                       !- Upper Limit Value
  Continuous,                             !- Numeric Type
  Temperature;                            !- Unit Type

OS:Surface,
  {579fa418-d476-42b5-a3bc-a07cd1cc8748}, !- Handle
  Roof1,                                  !- Name
  RoofCeiling,                            !- Surface Type
  {1508d2de-c085-4a9a-ba09-446d74b25679}, !- Construction Name
  {5f38e31b-d8d1-427a-aa3f-113096f8f513}, !- Space Name
  Outdoors,                               !- Outside Boundary Condition
  ,                                       !- Outside Boundary Condition Object
  SunExposed,                             !- Sun Exposure
  WindExposed,                            !- Wind Exposure
  ,                                       !- View Factor to Ground
  ,                                       !- Number of Vertices
  -26.9347048849634, 58.0557891618865, 2.4384, !- X,Y,Z Vertex 1 {m}
  -26.9347048849634, 46.7895631136661, 8.0715130241102, !- X,Y,Z Vertex 2 {m}
  -14.3386812381136, 46.7895631136661, 8.0715130241102, !- X,Y,Z Vertex 3 {m}
  -14.3386812381136, 58.0557891618865, 2.4384; !- X,Y,Z Vertex 4 {m}

OS:AdditionalProperties,
  {4490a6a7-8906-4672-af3c-304fd5a7a43c}, !- Handle
  {579fa418-d476-42b5-a3bc-a07cd1cc8748}, !- Object Name
  Length,                                 !- Feature Name 1
  Double,                                 !- Feature Data Type 1
  41.325536899113608,                     !- Feature Value 1
  Width,                                  !- Feature Name 2
  Double,                                 !- Feature Data Type 2
  41.325536899113601,                     !- Feature Value 2
  Azimuth,                                !- Feature Name 3
  Integer,                                !- Feature Data Type 3
  0,                                      !- Feature Value 3
  Tilt,                                   !- Feature Name 4
  Double,                                 !- Feature Data Type 4
  0.5,                                    !- Feature Value 4
  SurfaceType,                            !- Feature Name 5
  String,                                 !- Feature Data Type 5
  Roof;                                   !- Feature Value 5

OS:ThermalZone,
  {aff4d2e6-71d1-44b9-b5ef-3e02d938ea7f}, !- Handle
  attic - vented,                         !- Name
  1,                                      !- Multiplier
  ,                                       !- Ceiling Height {m}
  356.389957095237,                       !- Volume {m3}
  ,                                       !- Floor Area {m2}
  ,                                       !- Zone Inside Convection Algorithm
  ,                                       !- Zone Outside Convection Algorithm
  ,                                       !- Zone Conditioning Equipment List Name
  {5982c41b-0eee-41b8-a3aa-d3f709836e86}, !- Zone Air Inlet Port List
  {bda667b7-adeb-49b9-8c8d-b1e520068422}, !- Zone Air Exhaust Port List
  {a10e492a-393f-4371-ae50-18b9a89d1142}, !- Zone Air Node Name
  {739d1e37-5d17-4618-a454-88cf563ac963}, !- Zone Return Air Port List
  ,                                       !- Primary Daylighting Control Name
  ,                                       !- Fraction of Zone Controlled by Primary Daylighting Control
  ,                                       !- Secondary Daylighting Control Name
  ,                                       !- Fraction of Zone Controlled by Secondary Daylighting Control
  ,                                       !- Illuminance Map Name
  ,                                       !- Group Rendering Name
  ,                                       !- Thermostat Name
  No;                                     !- Use Ideal Air Loads

OS:Node,
  {020347b7-68f5-4dd7-b7f0-1930e0471608}, !- Handle
  Node 2,                                 !- Name
  {a10e492a-393f-4371-ae50-18b9a89d1142}, !- Inlet Port
  ;                                       !- Outlet Port

OS:Connection,
  {a10e492a-393f-4371-ae50-18b9a89d1142}, !- Handle
  {aff4d2e6-71d1-44b9-b5ef-3e02d938ea7f}, !- Source Object
  11,                                     !- Outlet Port
  {020347b7-68f5-4dd7-b7f0-1930e0471608}, !- Target Object
  2;                                      !- Inlet Port

OS:PortList,
  {5982c41b-0eee-41b8-a3aa-d3f709836e86}, !- Handle
  {aff4d2e6-71d1-44b9-b5ef-3e02d938ea7f}; !- HVAC Component

OS:PortList,
  {bda667b7-adeb-49b9-8c8d-b1e520068422}, !- Handle
  {aff4d2e6-71d1-44b9-b5ef-3e02d938ea7f}; !- HVAC Component

OS:PortList,
  {739d1e37-5d17-4618-a454-88cf563ac963}, !- Handle
  {aff4d2e6-71d1-44b9-b5ef-3e02d938ea7f}; !- HVAC Component

OS:Sizing:Zone,
  {76dfd723-98fe-4fcd-be7b-180a280449df}, !- Handle
  {aff4d2e6-71d1-44b9-b5ef-3e02d938ea7f}, !- Zone or ZoneList Name
  SupplyAirTemperature,                   !- Zone Cooling Design Supply Air Temperature Input Method
  14,                                     !- Zone Cooling Design Supply Air Temperature {C}
  11.11,                                  !- Zone Cooling Design Supply Air Temperature Difference {deltaC}
  SupplyAirTemperature,                   !- Zone Heating Design Supply Air Temperature Input Method
  40,                                     !- Zone Heating Design Supply Air Temperature {C}
  11.11,                                  !- Zone Heating Design Supply Air Temperature Difference {deltaC}
  0.0085,                                 !- Zone Cooling Design Supply Air Humidity Ratio {kg-H2O/kg-air}
  0.008,                                  !- Zone Heating Design Supply Air Humidity Ratio {kg-H2O/kg-air}
  ,                                       !- Zone Heating Sizing Factor
  ,                                       !- Zone Cooling Sizing Factor
  DesignDay,                              !- Cooling Design Air Flow Method
  ,                                       !- Cooling Design Air Flow Rate {m3/s}
  ,                                       !- Cooling Minimum Air Flow per Zone Floor Area {m3/s-m2}
  ,                                       !- Cooling Minimum Air Flow {m3/s}
  ,                                       !- Cooling Minimum Air Flow Fraction
  DesignDay,                              !- Heating Design Air Flow Method
  ,                                       !- Heating Design Air Flow Rate {m3/s}
  ,                                       !- Heating Maximum Air Flow per Zone Floor Area {m3/s-m2}
  ,                                       !- Heating Maximum Air Flow {m3/s}
  ,                                       !- Heating Maximum Air Flow Fraction
  No,                                     !- Account for Dedicated Outdoor Air System
  NeutralSupplyAir,                       !- Dedicated Outdoor Air System Control Strategy
  autosize,                               !- Dedicated Outdoor Air Low Setpoint Temperature for Design {C}
  autosize,                               !- Dedicated Outdoor Air High Setpoint Temperature for Design {C}
  Sensible Load Only No Latent Load,      !- Zone Load Sizing Method
  HumidityRatioDifference,                !- Zone Latent Cooling Design Supply Air Humidity Ratio Input Method
  ,                                       !- Zone Dehumidification Design Supply Air Humidity Ratio {kgWater/kgDryAir}
  0.005,                                  !- Zone Cooling Design Supply Air Humidity Ratio Difference {kgWater/kgDryAir}
  HumidityRatioDifference,                !- Zone Latent Heating Design Supply Air Humidity Ratio Input Method
  ,                                       !- Zone Humidification Design Supply Air Humidity Ratio {kgWater/kgDryAir}
  0.005,                                  !- Zone Humidification Design Supply Air Humidity Ratio Difference {kgWater/kgDryAir}
  ,                                       !- Zone Humidistat Dehumidification Set Point Schedule Name
  ,                                       !- Zone Humidistat Humidification Set Point Schedule Name
  ,                                       !- Design Zone Air Distribution Effectiveness in Cooling Mode
  ,                                       !- Design Zone Air Distribution Effectiveness in Heating Mode
  ,                                       !- Design Zone Secondary Recirculation Fraction {dimensionless}
  ,                                       !- Design Minimum Zone Ventilation Efficiency {dimensionless}
  Coincident;                             !- Sizing Option

OS:ZoneHVAC:EquipmentList,
  {7f59bb26-c660-4816-a328-10bef561eda2}, !- Handle
  Zone HVAC Equipment List 2,             !- Name
  {aff4d2e6-71d1-44b9-b5ef-3e02d938ea7f}; !- Thermal Zone

OS:AdditionalProperties,
  {50f58dfa-25d5-4b24-bb39-20514f86ee91}, !- Handle
  {aff4d2e6-71d1-44b9-b5ef-3e02d938ea7f}, !- Object Name
  ObjectType,                             !- Feature Name 1
  String,                                 !- Feature Data Type 1
  attic - vented;                         !- Feature Value 1

OS:Space,
  {5f38e31b-d8d1-427a-aa3f-113096f8f513}, !- Handle
  attic - vented 1,                       !- Name
  ,                                       !- Space Type Name
  ,                                       !- Default Construction Set Name
  ,                                       !- Default Schedule Set Name
  ,                                       !- Direction of Relative North {deg}
  ,                                       !- X Origin {m}
  ,                                       !- Y Origin {m}
  ,                                       !- Z Origin {m}
  ,                                       !- Building Story Name
  {aff4d2e6-71d1-44b9-b5ef-3e02d938ea7f}, !- Thermal Zone Name
  ,                                       !- Part of Total Floor Area
  ,                                       !- Design Specification Outdoor Air Object Name
  ,                                       !- Building Unit Name
  356.389957095237;                       !- Volume {m3}

OS:Material,
  {da74f4e6-c5ab-4afc-9ddd-4342f4fdb5e0}, !- Handle
  asphalt or fiberglass shingles,         !- Name
  Rough,                                  !- Roughness
  0.00635,                                !- Thickness {m}
  0.162714,                               !- Conductivity {W/m-K}
  1121.4,                                 !- Density {kg/m3}
  1465.45,                                !- Specific Heat {J/kg-K}
  0.9,                                    !- Thermal Absorptance
  0.85,                                   !- Solar Absorptance
  0.85;                                   !- Visible Absorptance

OS:Material,
  {36ed4763-fcff-419e-98ec-7689dff15c9f}, !- Handle