
OS:Version,
  {1b67be0b-7bc9-496a-906f-32a15f01ae85}, !- Handle
  3.10.0;                                 !- Version Identifier

OS:SimulationControl,
  {ec890239-c372-4146-972f-ac17d744ac00}, !- Handle
  ,                                       !- Do Zone Sizing Calculation
  ,                                       !- Do System Sizing Calculation
  ,                                       !- Do Plant Sizing Calculation
  No;                                     !- Run Simulation for Sizing Periods

OS:Timestep,
  {b8918877-d36e-4883-b44d-220aedddfea5}, !- Handle
  1;                                      !- Number of Timesteps per Hour

OS:ShadowCalculation,
  {736d6422-a1aa-46c3-9bd8-50bebe8ddeab}, !- Handle
  PolygonClipping,                        !- Shading Calculation Method
  ,                                       !- Shading Calculation Update Frequency Method
  20,                                     !- Shading Calculation Update Frequency
  200,                                    !- Maximum Figures in Shadow Overlap Calculations
  ,                                       !- Polygon Clipping Algorithm
  512,                                    !- Pixel Counting Resolution
  ,                                       !- Sky Diffuse Modeling Algorithm
  No,                                     !- Output External Shading Calculation Results
  No,                                     !- Disable Self-Shading Within Shading Zone Groups
  No;                                     !- Disable Self-Shading From Shading Zone Groups to Other Zones

OS:SurfaceConvectionAlgorithm:Outside,
  {e14ba92b-0bb9-493f-9387-f95c18767f3a}, !- Handle
  DOE-2;                                  !- Algorithm

OS:SurfaceConvectionAlgorithm:Inside,
  {05b9d129-d88c-42fe-9dca-dad6716b8adf}, !- Handle
  TARP;                                   !- Algorithm

OS:ZoneCapacitanceMultiplier:ResearchSpecial,
  {a9b518f1-1509-48e5-a2f0-76ead8ea3ddf}, !- Handle
  7,                                      !- Temperature Capacity Multiplier
  15,                                     !- Humidity Capacity Multiplier
  ;                                       !- Carbon Dioxide Capacity Multiplier

OS:ConvergenceLimits,
  {8849195c-03e7-4e0e-abfc-764ecd6763b8}, !- Handle
  0;                                      !- Minimum System Timestep {minutes}

OS:RunPeriod,
  {091a2bf2-a121-441e-9b08-ba66b3bbb6ae}, !- Handle
  Run Period 1,                           !- Name
  1,                                      !- Begin Month
  1,                                      !- Begin Day of Month
  12,                                     !- End Month
  31,                                     !- End Day of Month
  ,                                       !- Use Weather File Holidays and Special Days
  ,                                       !- Use Weather File Daylight Saving Period
  ,                                       !- Apply Weekend Holiday Rule
  ,                                       !- Use Weather File Rain Indicators
  ,                                       !- Use Weather File Snow Indicators
  ;                                       !- Number of Times Runperiod to be Repeated

OS:PerformancePrecisionTradeoffs,
  {183b3125-f658-4653-8857-4860fdac110c}, !- Handle
  ,                                       !- Use Coil Direct Solutions
  CarrollMRT;                             !- Zone Radiant Exchange Algorithm

OS:WeatherFile,
  {f6bc6bcf-a377-4beb-94ba-a726782557b3}, !- Handle
  Buffalo Niagara Intl Ap,                !- City
  NY,                                     !- State Province Region
  USA,                                    !- Country
  TMY3,                                   !- Data Source
  725280,                                 !- WMO Number
  42.93,                                  !- Latitude {deg}
  -78.73,                                 !- Longitude {deg}
  -5,                                     !- Time Zone {hr}
  215,                                    !- Elevation {m}
  /Users/nmoore/github/urbanopt-example-geojson-project/example_project/weather/USA_NY_Buffalo-Greater.Buffalo.Intl.AP.725280_TMY3.epw, !- Url
  6B50E0FF,                               !- Checksum
  ,                                       !- Start Date Actual Year
  Sunday;                                 !- Start Day of Week

OS:YearDescription,
  {38fb016b-de65-402a-b038-c3f8e9e83f24}, !- Handle
  2007,                                   !- Calendar Year
  ,                                       !- Day of Week for Start Day
  ;                                       !- Is Leap Year

OS:Site,
  {70a14084-4653-44a1-a3cd-da52968eafcd}, !- Handle
  Buffalo Niagara Intl Ap_NY,             !- Name
  42.93,                                  !- Latitude {deg}
  -78.73,                                 !- Longitude {deg}
  -5,                                     !- Time Zone {hr}
  215,                                    !- Elevation {m}
  Suburbs,                                !- Terrain
  Yes;                                    !- Keep Site Location Information

OS:RunPeriodControl:DaylightSavingTime,
  {e70b0f86-e795-4c10-a777-068827497f0a}, !- Handle
  Mar 12,                                 !- Start Date
  Nov 5;                                  !- End Date

OS:Site:GroundTemperature:Shallow,
  {f0ccdca6-81fb-4cbb-996d-5b5215deebc1}, !- Handle
  4.30207395723828,                       !- January Surface Ground Temperature {C}
  2.29327249652502,                       !- February Surface Ground Temperature {C}
  2.13240047156047,                       !- March Surface Ground Temperature {C}
  3.08567940719286,                       !- April Surface Ground Temperature {C}
  6.91256312497526,                       !- May Surface Ground Temperature {C}
  10.7216195949507,                       !- June Surface Ground Temperature {C}
  14.0238679822574,                       !- July Surface Ground Temperature {C}
  16.1157611184724,                       !- August Surface Ground Temperature {C}
  16.2934789303462,                       !- September Surface Ground Temperature {C}
  14.5920754632847,                       !- October Surface Ground Temperature {C}
  11.374036348653,                        !- November Surface Ground Temperature {C}
  7.68182621661674;                       !- December Surface Ground Temperature {C}

OS:ThermalZone,
  {c9368e89-c343-4f6f-b9b7-867472b32297}, !- Handle
  conditioned space,                      !- Name
  1,                                      !- Multiplier
  ,                                       !- Ceiling Height {m}
  692.06373070848,                        !- Volume {m3}
  ,                                       !- Floor Area {m2}
  ,                                       !- Zone Inside Convection Algorithm
  ,                                       !- Zone Outside Convection Algorithm
  ,                                       !- Zone Conditioning Equipment List Name
  {75de1ba3-13d1-4349-8f44-46c411e4445a}, !- Zone Air Inlet Port List
  {0ed99c01-e7ea-4ed7-a050-05b76191c57b}, !- Zone Air Exhaust Port List
  {7e3e439a-b564-4de7-917c-0ec58eded44a}, !- Zone Air Node Name
  {af39db12-784f-4d80-865d-a9f30b711f0a}, !- Zone Return Air Port List
  ,                                       !- Primary Daylighting Control Name
  ,                                       !- Fraction of Zone Controlled by Primary Daylighting Control
  ,                                       !- Secondary Daylighting Control Name
  ,                                       !- Fraction of Zone Controlled by Secondary Daylighting Control
  ,                                       !- Illuminance Map Name
  ,                                       !- Group Rendering Name
  {6b69a071-1f83-4d6b-a0b7-97da76e286c2}, !- Thermostat Name
  No;                                     !- Use Ideal Air Loads

OS:Node,
  {fa2b7cbf-2c37-42b0-8d5c-a4571bc5da50}, !- Handle
  Node 1,                                 !- Name
  {7e3e439a-b564-4de7-917c-0ec58eded44a}, !- Inlet Port
  ;                                       !- Outlet Port

OS:Connection,
  {7e3e439a-b564-4de7-917c-0ec58eded44a}, !- Handle
  {c9368e89-c343-4f6f-b9b7-867472b32297}, !- Source Object
  11,                                     !- Outlet Port
  {fa2b7cbf-2c37-42b0-8d5c-a4571bc5da50}, !- Target Object
  2;                                      !- Inlet Port

OS:PortList,
  {75de1ba3-13d1-4349-8f44-46c411e4445a}, !- Handle
  {c9368e89-c343-4f6f-b9b7-867472b32297}; !- HVAC Component

OS:PortList,
  {0ed99c01-e7ea-4ed7-a050-05b76191c57b}, !- Handle
  {c9368e89-c343-4f6f-b9b7-867472b32297}; !- HVAC Component

OS:PortList,
  {af39db12-784f-4d80-865d-a9f30b711f0a}, !- Handle
  {c9368e89-c343-4f6f-b9b7-867472b32297}; !- HVAC Component

OS:Sizing:Zone,
  {5677c025-5cd8-489c-a4b5-d8a06f49b236}, !- Handle
  {c9368e89-c343-4f6f-b9b7-867472b32297}, !- Zone or ZoneList Name
  SupplyAirTemperature,                   !- Zone Cooling Design Supply Air Temperature Input Method
  14,                                     !- Zone Cooling Design Supply Air Temperature {C}
  11.11,                                  !- Zone Cooling Design Supply Air Temperature Difference {deltaC}
  SupplyAirTemperature,                   !- Zone Heating Design Supply Air Temperature Input Method
  40,                                     !- Zone Heating Design Supply Air Temperature {C}
  11.11,                                  !- Zone Heating Design Supply Air Temperature Difference {deltaC}
  0.0085,                                 !- Zone Cooling Design Supply Air Humidity Ratio {kg-H2O/kg-air}
  0.008,                                  !- Zone Heating Design Supply Air Humidity Ratio {kg-H2O/kg-air}
  ,                                       !- Zone Heating Sizing Factor
  ,                                       !- Zone Cooling Sizing Factor
  DesignDay,                              !- Cooling Design Air Flow Method
  ,                                       !- Cooling Design Air Flow Rate {m3/s}
  ,                                       !- Cooling Minimum Air Flow per Zone Floor Area {m3/s-m2}
  ,                                       !- Cooling Minimum Air Flow {m3/s}
  ,                                       !- Cooling Minimum Air Flow Fraction
  DesignDay,                              !- Heating Design Air Flow Method
  ,                                       !- Heating Design Air Flow Rate {m3/s}
  ,                                       !- Heating Maximum Air Flow per Zone Floor Area {m3/s-m2}
  ,                                       !- Heating Maximum Air Flow {m3/s}
  ,                                       !- Heating Maximum Air Flow Fraction
  No,                                     !- Account for Dedicated Outdoor Air System
  NeutralSupplyAir,                       !- Dedicated Outdoor Air System Control Strategy
  autosize,                               !- Dedicated Outdoor Air Low Setpoint Temperature for Design {C}
  autosize,                               !- Dedicated Outdoor Air High Setpoint Temperature for Design {C}
  Sensible Load Only No Latent Load,      !- Zone Load Sizing Method
  HumidityRatioDifference,                !- Zone Latent Cooling Design Supply Air Humidity Ratio Input Method
  ,                                       !- Zone Dehumidification Design Supply Air Humidity Ratio {kgWater/kgDryAir}
  0.005,                                  !- Zone Cooling Design Supply Air Humidity Ratio Difference {kgWater/kgDryAir}
  HumidityRatioDifference,                !- Zone Latent Heating Design Supply Air Humidity Ratio Input Method
  ,                                       !- Zone Humidification Design Supply Air Humidity Ratio {kgWater/kgDryAir}
  0.005,                                  !- Zone Humidification Design Supply Air Humidity Ratio Difference {kgWater/kgDryAir}
  ,                                       !- Zone Humidistat Dehumidification Set Point Schedule Name
  ,                                       !- Zone Humidistat Humidification Set Point Schedule Name
  ,                                       !- Design Zone Air Distribution Effectiveness in Cooling Mode
  ,                                       !- Design Zone Air Distribution Effectiveness in Heating Mode
  ,                                       !- Design Zone Secondary Recirculation Fraction {dimensionless}
  ,                                       !- Design Minimum Zone Ventilation Efficiency {dimensionless}
  Coincident;                             !- Sizing Option

OS:ZoneHVAC:EquipmentList,
  {9d604f7d-1afe-4473-9882-2260fe603bc7}, !- Handle
  Zone HVAC Equipment List 1,             !- Name
  {c9368e89-c343-4f6f-b9b7-867472b32297}, !- Thermal Zone
  ,                                       !- Load Distribution Scheme
  {75c1bd79-a789-4410-a44b-34388b018b75}, !- Zone Equipment 1
  1,                                      !- Zone Equipment Cooling Sequence 1
  1,                                      !- Zone Equipment Heating or No-Load Sequence 1
  {bb6a686b-98ec-42bf-91f4-300d01aa753d}, !- Zone Equipment Sequential Cooling Fraction Schedule Name 1
  {f790d0c5-46ce-48b6-b8c5-5a8af193fd61}; !- Zone Equipment Sequential Heating Fraction Schedule Name 1

OS:AdditionalProperties,
  {f8c03da6-01b8-4037-ade6-7869874f5652}, !- Handle
  {c9368e89-c343-4f6f-b9b7-867472b32297}, !- Object Name
  ObjectType,                             !- Feature Name 1
  String,                                 !- Feature Data Type 1
  conditioned space;                      !- Feature Value 1

OS:Space,
  {019ce610-3934-407d-a9a9-65c6e0e0f879}, !- Handle
  conditioned space 1,                    !- Name
  ,                                       !- Space Type Name
  ,                                       !- Default Construction Set Name
  ,                                       !- Default Schedule Set Name
  ,                                       !- Direction of Relative North {deg}
  ,                                       !- X Origin {m}
  ,                                       !- Y Origin {m}
  ,                                       !- Z Origin {m}
  ,                                       !- Building Story Name
  {c9368e89-c343-4f6f-b9b7-867472b32297}, !- Thermal Zone Name
  ,                                       !- Part of Total Floor Area
  ,                                       !- Design Specification Outdoor Air Object Name
  ,                                       !- Building Unit Name
  692.06373070848;                        !- Volume {m3}

OS:Schedule:Ruleset,
  {7932e8df-b3cf-4d52-ad25-b358077adaa0}, !- Handle
  heating setpoint,                       !- Name
  {d8890408-8315-40f2-8859-a359fc42b448}, !- Schedule Type Limits Name
  {ae5d610f-d695-4836-8763-279e3a352877}; !- Default Day Schedule Name

OS:Schedule:Day,
  {ae5d610f-d695-4836-8763-279e3a352877}, !- Handle
  heating setpoint default day,           !- Name
  {d8890408-8315-40f2-8859-a359fc42b448}, !- Schedule Type Limits Name
  ,                                       !- Interpolate to Timestep
  24,                                     !- Hour 1
  0,                                      !- Minute 1
  0;                                      !- Value Until Time 1

OS:Schedule:Rule,
  {126e9ac9-b8f7-417b-8545-af88f7876894}, !- Handle
  heating setpoint allday rule,           !- Name
  {7932e8df-b3cf-4d52-ad25-b358077adaa0}, !- Schedule Ruleset Name
  0,                                      !- Rule Order
  {050b1d87-44ba-4bcd-b4f0-132a8f31a255}, !- Day Schedule Name
  Yes,                                    !- Apply Sunday
  Yes,                                    !- Apply Monday
  Yes,                                    !- Apply Tuesday
  Yes,                                    !- Apply Wednesday
  Yes,                                    !- Apply Thursday
  Yes,                                    !- Apply Friday
  Yes,                                    !- Apply Saturday
  DateRange,                              !- Date Specification Type
  1,                                      !- Start Month
  1,                                      !- Start Day
  12,                                     !- End Month
  31;                                     !- End Day

OS:Schedule:Day,
  {050b1d87-44ba-4bcd-b4f0-132a8f31a255}, !- Handle
  heating setpoint day,                   !- Name
  {d8890408-8315-40f2-8859-a359fc42b448}, !- Schedule Type Limits Name
  ,                                       !- Interpolate to Timestep
  24,                                     !- Hour 1
  0,                                      !- Minute 1
  20;                                     !- Value Until Time 1

OS:Schedule:Ruleset,
  {fe2f3eaf-f1d6-4a38-8d93-b4b6efc81bf3}, !- Handle
  cooling setpoint,                       !- Name
  {d8890408-8315-40f2-8859-a359fc42b448}, !- Schedule Type Limits Name
  {4cb0594e-24a2-465b-a771-add1b6317618}; !- Default Day Schedule Name

OS:Schedule:Day,
  {4cb0594e-24a2-465b-a771-add1b6317618}, !- Handle
  cooling setpoint default day,           !- Name
  {d8890408-8315-40f2-8859-a359fc42b448}, !- Schedule Type Limits Name
  ,                                       !- Interpolate to Timestep
  24,                                     !- Hour 1
  0,                                      !- Minute 1
  0;                                      !- Value Until Time 1

OS:Schedule:Rule,
  {e406fb4b-d967-4c63-be88-7722a70b22bf}, !- Handle
  cooling setpoint allday rule,           !- Name
  {fe2f3eaf-f1d6-4a38-8d93-b4b6efc81bf3}, !- Schedule Ruleset Name
  0,                                      !- Rule Order
  {003790e9-9dc9-4f66-bbc7-a748e9dba553}, !- Day Schedule Name
  Yes,                                    !- Apply Sunday
  Yes,                                    !- Apply Monday
  Yes,                                    !- Apply Tuesday
  Yes,                                    !- Apply Wednesday
  Yes,                                    !- Apply Thursday
  Yes,                                    !- Apply Friday
  Yes,                                    !- Apply Saturday
  DateRange,                              !- Date Specification Type
  1,                                      !- Start Month
  1,                                      !- Start Day
  12,                                     !- End Month
  31;                                     !- End Day

OS:Schedule:Day,
  {003790e9-9dc9-4f66-bbc7-a748e9dba553}, !- Handle
  cooling setpoint day,                   !- Name
  {d8890408-8315-40f2-8859-a359fc42b448}, !- Schedule Type Limits Name
  ,                                       !- Interpolate to Timestep
  24,                                     !- Hour 1
  0,                                      !- Minute 1
  25.5555555555556;                       !- Value Until Time 1

OS:ThermostatSetpoint:DualSetpoint,
  {6b69a071-1f83-4d6b-a0b7-97da76e286c2}, !- Handle
  conditioned space temperature setpoint, !- Name
  {7932e8df-b3cf-4d52-ad25-b358077adaa0}, !- Heating Setpoint Temperature Schedule Name
  {fe2f3eaf-f1d6-4a38-8d93-b4b6efc81bf3}, !- Cooling Setpoint Temperature Schedule Name
  0;                                      !- Temperature Difference Between Cutout And Setpoint {deltaC}

OS:ScheduleTypeLimits,
  {d8890408-8315-40f2-8859-a359fc42b448}, !- Handle
  Temperature,                            !- Name
  ,                                       !- Lower Limit Value
  ,                                       !- Upper Limit Value
  Continuous,                             !- Numeric Type
  Temperature;                            !- Unit Type

OS:Surface,
  {a622cacc-131e-407d-bf6e-37c46006c843}, !- Handle
  Roof1,                                  !- Name
  RoofCeiling,                            !- Surface Type
  {3cd41462-b002-4c98-8aad-ba31649d349f}, !- Construction Name
  {306f643e-857e-4719-b695-36e305436cb2}, !- Space Name
  Outdoors,                               !- Outside Boundary Condition
  ,                                       !- Outside Boundary Condition Object
  SunExposed,                             !- Sun Exposure
  WindExposed,                            !- Wind Exposure
  ,                                       !- View Factor to Ground
  ,                                       !- Number of Vertices
  -26.9347048849634, 58.0557891618865, 2.4384, !- X,Y,Z Vertex 1 {m}
  -26.9347048849634, 46.7895631136661, 8.0715130241102, !- X,Y,Z Vertex 2 {m}
  -14.3386812381136, 46.7895631136661, 8.0715130241102, !- X,Y,Z Vertex 3 {m}
  -14.3386812381136, 58.0557891618865, 2.4384; !- X,Y,Z Vertex 4 {m}

OS:AdditionalProperties,
  {806d3786-3de3-4803-90d8-a673739d1452}, !- Handle
  {a622cacc-131e-407d-bf6e-37c46006c843}, !- Object Name
  Length,                                 !- Feature Name 1
  Double,                                 !- Feature Data Type 1
  41.325536899113608,                     !- Feature Value 1
  Width,                                  !- Feature Name 2
  Double,                                 !- Feature Data Type 2
  41.325536899113601,                     !- Feature Value 2
  Azimuth,                                !- Feature Name 3
  Integer,                                !- Feature Data Type 3
  0,                                      !- Feature Value 3
  Tilt,                                   !- Feature Name 4
  Double,                                 !- Feature Data Type 4
  0.5,                                    !- Feature Value 4
  SurfaceType,                            !- Feature Name 5
  String,                                 !- Feature Data Type 5
  Roof;                                   !- Feature Value 5

OS:ThermalZone,
  {73e1b3df-529c-409b-a460-d887b2d1b88f}, !- Handle
  attic - vented,                         !- Name
  1,                                      !- Multiplier
  ,                                       !- Ceiling Height {m}
  356.390921899745,                       !- Volume {m3}
  ,                                       !- Floor Area {m2}
  ,                                       !- Zone Inside Convection Algorithm
  ,                                       !- Zone Outside Convection Algorithm
  ,                                       !- Zone Conditioning Equipment List Name
  {fce5de48-3bbc-4d6c-a427-54dc7edb33dc}, !- Zone Air Inlet Port List
  {110e0241-9fe1-4f79-9eea-6019eb472c9a}, !- Zone Air Exhaust Port List
  {b35ad696-5000-46a6-9320-d657370a0c39}, !- Zone Air Node Name
  {42b35f3d-6123-4406-a213-af69c3452b55}, !- Zone Return Air Port List
  ,                                       !- Primary Daylighting Control Name
  ,                                       !- Fraction of Zone Controlled by Primary Daylighting Control
  ,                                       !- Secondary Daylighting Control Name
  ,                                       !- Fraction of Zone Controlled by Secondary Daylighting Control
  ,                                       !- Illuminance Map Name
  ,                                       !- Group Rendering Name
  ,                                       !- Thermostat Name
  No;                                     !- Use Ideal Air Loads

OS:Node,
  {e5d6b1c0-a626-4203-96ac-69214e7ddca5}, !- Handle
  Node 2,                                 !- Name
  {b35ad696-5000-46a6-9320-d657370a0c39}, !- Inlet Port
  ;                                       !- Outlet Port

OS:Connection,
  {b35ad696-5000-46a6-9320-d657370a0c39}, !- Handle
  {73e1b3df-529c-409b-a460-d887b2d1b88f}, !- Source Object
  11,                                     !- Outlet Port
  {e5d6b1c0-a626-4203-96ac-69214e7ddca5}, !- Target Object
  2;                                      !- Inlet Port

OS:PortList,
  {fce5de48-3bbc-4d6c-a427-54dc7edb33dc}, !- Handle
  {73e1b3df-529c-409b-a460-d887b2d1b88f}; !- HVAC Component

OS:PortList,
  {110e0241-9fe1-4f79-9eea-6019eb472c9a}, !- Handle
  {73e1b3df-529c-409b-a460-d887b2d1b88f}; !- HVAC Component

OS:PortList,
  {42b35f3d-6123-4406-a213-af69c3452b55}, !- Handle
  {73e1b3df-529c-409b-a460-d887b2d1b88f}; !- HVAC Component

OS:Sizing:Zone,
  {f6e3b953-0dd7-4243-a4b3-b0c4f8f254c2}, !- Handle
  {73e1b3df-529c-409b-a460-d887b2d1b88f}, !- Zone or ZoneList Name
  SupplyAirTemperature,                   !- Zone Cooling Design Supply Air Temperature Input Method
  14,                                     !- Zone Cooling Design Supply Air Temperature {C}
  11.11,                                  !- Zone Cooling Design Supply Air Temperature Difference {deltaC}
  SupplyAirTemperature,                   !- Zone Heating Design Supply Air Temperature Input Method
  40,                                     !- Zone Heating Design Supply Air Temperature {C}
  11.11,                                  !- Zone Heating Design Supply Air Temperature Difference {deltaC}
  0.0085,                                 !- Zone Cooling Design Supply Air Humidity Ratio {kg-H2O/kg-air}
  0.008,                                  !- Zone Heating Design Supply Air Humidity Ratio {kg-H2O/kg-air}
  ,                                       !- Zone Heating Sizing Factor
  ,                                       !- Zone Cooling Sizing Factor
  DesignDay,                              !- Cooling Design Air Flow Method
  ,                                       !- Cooling Design Air Flow Rate {m3/s}
  ,                                       !- Cooling Minimum Air Flow per Zone Floor Area {m3/s-m2}
  ,                                       !- Cooling Minimum Air Flow {m3/s}
  ,                                       !- Cooling Minimum Air Flow Fraction
  DesignDay,                              !- Heating Design Air Flow Method
  ,                                       !- Heating Design Air Flow Rate {m3/s}
  ,                                       !- Heating Maximum Air Flow per Zone Floor Area {m3/s-m2}
  ,                                       !- Heating Maximum Air Flow {m3/s}
  ,                                       !- Heating Maximum Air Flow Fraction
  No,                                     !- Account for Dedicated Outdoor Air System
  NeutralSupplyAir,                       !- Dedicated Outdoor Air System Control Strategy
  autosize,                               !- Dedicated Outdoor Air Low Setpoint Temperature for Design {C}
  autosize,                               !- Dedicated Outdoor Air High Setpoint Temperature for Design {C}
  Sensible Load Only No Latent Load,      !- Zone Load Sizing Method
  HumidityRatioDifference,                !- Zone Latent Cooling Design Supply Air Humidity Ratio Input Method
  ,                                       !- Zone Dehumidification Design Supply Air Humidity Ratio {kgWater/kgDryAir}
  0.005,                                  !- Zone Cooling Design Supply Air Humidity Ratio Difference {kgWater/kgDryAir}
  HumidityRatioDifference,                !- Zone Latent Heating Design Supply Air Humidity Ratio Input Method
  ,                                       !- Zone Humidification Design Supply Air Humidity Ratio {kgWater/kgDryAir}
  0.005,                                  !- Zone Humidification Design Supply Air Humidity Ratio Difference {kgWater/kgDryAir}
  ,                                       !- Zone Humidistat Dehumidification Set Point Schedule Name
  ,                                       !- Zone Humidistat Humidification Set Point Schedule Name
  ,                                       !- Design Zone Air Distribution Effectiveness in Cooling Mode
  ,                                       !- Design Zone Air Distribution Effectiveness in Heating Mode
  ,                                       !- Design Zone Secondary Recirculation Fraction {dimensionless}
  ,                                       !- Design Minimum Zone Ventilation Efficiency {dimensionless}
  Coincident;                             !- Sizing Option

OS:ZoneHVAC:EquipmentList,
  {c3f92dfd-7f80-40b7-bf98-1d06da4b77a7}, !- Handle
  Zone HVAC Equipment List 2,             !- Name
  {73e1b3df-529c-409b-a460-d887b2d1b88f}; !- Thermal Zone

OS:AdditionalProperties,
  {257cfbb6-44ef-431b-9da1-3448ebe3fff1}, !- Handle
  {73e1b3df-529c-409b-a460-d887b2d1b88f}, !- Object Name
  ObjectType,                             !- Feature Name 1
  String,                                 !- Feature Data Type 1
  attic - vented;                         !- Feature Value 1

OS:Space,
  {306f643e-857e-4719-b695-36e305436cb2}, !- Handle
  attic - vented 1,                       !- Name
  ,                                       !- Space Type Name
  ,                                       !- Default Construction Set Name
  ,                                       !- Default Schedule Set Name
  ,                                       !- Direction of Relative North {deg}
  ,                                       !- X Origin {m}
  ,                                       !- Y Origin {m}
  ,                                       !- Z Origin {m}
  ,                                       !- Building Story Name
  {73e1b3df-529c-409b-a460-d887b2d1b88f}, !- Thermal Zone Name
  ,                                       !- Part of Total Floor Area
  ,                                       !- Design Specification Outdoor Air Object Name
  ,                                       !- Building Unit Name
  356.390921899745;                       !- Volume {m3}

OS:Material,
  {acd0a2d6-84b6-452e-b32d-cb64dc44935c}, !- Handle
  asphalt or fiberglass shingles,         !- Name
  Rough,                                  !- Roughness
  0.00635,                                !- Thickness {m}
  0.162714,                               !- Conductivity {W/m-K}
  1121.4,                                 !- Density {kg/m3}
  1465.45,                                !- Specific Heat {J/kg-K}
  0.9,                                    !- Thermal Absorptance
  0.85,                                   !- Solar Absorptance
  0.85;                                   !- Visible Absorptance

OS:Material,
  {49837383-5c6b-42d4-af55-baa2e476a342}, !- Handle