
OS:Version,
  {ab83b821-f5cd-42a2-83ee-a3cda5bdc784}, !- Handle
  3.9.0;                                  !- Version Identifier

OS:SimulationControl,
  {a1cd68d1-60c7-4eb8-ab06-7923108fff4c}, !- Handle
  ,                                       !- Do Zone Sizing Calculation
  ,                                       !- Do System Sizing Calculation
  ,                                       !- Do Plant Sizing Calculation
  No;                                     !- Run Simulation for Sizing Periods

OS:Timestep,
  {94ae39a6-9b8c-4870-baaa-3b0c16df4601}, !- Handle
  1;                                      !- Number of Timesteps per Hour

OS:ShadowCalculation,
  {496cd9f7-4f1d-4dc0-adaa-274743796585}, !- Handle
  PolygonClipping,                        !- Shading Calculation Method
  ,                                       !- Shading Calculation Update Frequency Method
  20,                                     !- Shading Calculation Update Frequency
  200,                                    !- Maximum Figures in Shadow Overlap Calculations
  ,                                       !- Polygon Clipping Algorithm
  512,                                    !- Pixel Counting Resolution
  ,                                       !- Sky Diffuse Modeling Algorithm
  No,                                     !- Output External Shading Calculation Results
  No,                                     !- Disable Self-Shading Within Shading Zone Groups
  No;                                     !- Disable Self-Shading From Shading Zone Groups to Other Zones

OS:SurfaceConvectionAlgorithm:Outside,
  {8a2932d2-af09-4bcb-9577-b3da57d86bee}, !- Handle
  DOE-2;                                  !- Algorithm

OS:SurfaceConvectionAlgorithm:Inside,
  {4216e634-264c-4f0a-8498-715aec4b7bfe}, !- Handle
  TARP;                                   !- Algorithm

OS:ZoneCapacitanceMultiplier:ResearchSpecial,
  {a9f6315b-acf9-4aff-9f01-fa8e830a22c1}, !- Handle
  7,                                      !- Temperature Capacity Multiplier
  15,                                     !- Humidity Capacity Multiplier
  ;                                       !- Carbon Dioxide Capacity Multiplier

OS:ConvergenceLimits,
  {195c7101-2556-44a6-a99a-1597a9dc7786}, !- Handle
  0;                                      !- Minimum System Timestep {minutes}

OS:RunPeriod,
  {d9374bda-08c6-4787-bd4e-ae7ccb76f1c3}, !- Handle
  Run Period 1,                           !- Name
  1,                                      !- Begin Month
  1,                                      !- Begin Day of Month
  12,                                     !- End Month
  31,                                     !- End Day of Month
  ,                                       !- Use Weather File Holidays and Special Days
  ,                                       !- Use Weather File Daylight Saving Period
  ,                                       !- Apply Weekend Holiday Rule
  ,                                       !- Use Weather File Rain Indicators
  ,                                       !- Use Weather File Snow Indicators
  ;                                       !- Number of Times Runperiod to be Repeated

OS:PerformancePrecisionTradeoffs,
  {f79f8b67-ff3f-40f9-b5c7-139d2e7c814f}, !- Handle
  ,                                       !- Use Coil Direct Solutions
  CarrollMRT;                             !- Zone Radiant Exchange Algorithm

OS:WeatherFile,
  {cae60e8a-2260-45ae-8b8a-072175f72884}, !- Handle
  Buffalo Niagara Intl Ap,                !- City
  NY,                                     !- State Province Region
  USA,                                    !- Country
  TMY3,                                   !- Data Source
  725280,                                 !- WMO Number
  42.93,                                  !- Latitude {deg}
  -78.73,                                 !- Longitude {deg}
  -5,                                     !- Time Zone {hr}
  215,                                    !- Elevation {m}
  /Users/nmoore/github/urbanopt-example-geojson-project/example_project/weather/USA_NY_Buffalo-Greater.Buffalo.Intl.AP.725280_TMY3.epw, !- Url
  6B50E0FF,                               !- Checksum
  ,                                       !- Start Date Actual Year
  Sunday;                                 !- Start Day of Week

OS:YearDescription,
  {0267e5e5-bb4f-483a-829b-15cf39a34d6e}, !- Handle
  2007,                                   !- Calendar Year
  ,                                       !- Day of Week for Start Day
  ;                                       !- Is Leap Year

OS:Site,
  {377ff5b7-6f81-450e-9899-aff59d4670c5}, !- Handle
  Buffalo Niagara Intl Ap_NY,             !- Name
  42.93,                                  !- Latitude {deg}
  -78.73,                                 !- Longitude {deg}
  -5,                                     !- Time Zone {hr}
  215,                                    !- Elevation {m}
  Suburbs,                                !- Terrain
  Yes;                                    !- Keep Site Location Information

OS:RunPeriodControl:DaylightSavingTime,
  {cd2402ab-2042-4c6e-91c8-24cea881d894}, !- Handle
  Mar 12,                                 !- Start Date
  Nov 5;                                  !- End Date

OS:Site:GroundTemperature:Shallow,
  {49c245d8-7360-4952-8036-b21d461304e4}, !- Handle
  4.30207395723828,                       !- January Surface Ground Temperature {C}
  2.29327249652502,                       !- February Surface Ground Temperature {C}
  2.13240047156047,                       !- March Surface Ground Temperature {C}
  3.08567940719286,                       !- April Surface Ground Temperature {C}
  6.91256312497526,                       !- May Surface Ground Temperature {C}
  10.7216195949507,                       !- June Surface Ground Temperature {C}
  14.0238679822574,                       !- July Surface Ground Temperature {C}
  16.1157611184724,                       !- August Surface Ground Temperature {C}
  16.2934789303462,                       !- September Surface Ground Temperature {C}
  14.5920754632847,                       !- October Surface Ground Temperature {C}
  11.374036348653,                        !- November Surface Ground Temperature {C}
  7.68182621661674;                       !- December Surface Ground Temperature {C}

OS:ThermalZone,
  {ba812d2a-0942-4860-b28b-f861b8815c86}, !- Handle
  conditioned space,                      !- Name
  1,                                      !- Multiplier
  ,                                       !- Ceiling Height {m}
  692.06373070848,                        !- Volume {m3}
  ,                                       !- Floor Area {m2}
  ,                                       !- Zone Inside Convection Algorithm
  ,                                       !- Zone Outside Convection Algorithm
  ,                                       !- Zone Conditioning Equipment List Name
  {ee2bf144-4172-49f3-99f1-d88ffbf8e438}, !- Zone Air Inlet Port List
  {188837fd-90a7-4f65-a888-2b5946ee21db}, !- Zone Air Exhaust Port List
  {e6cdb2ad-0e99-4a15-8d68-3db2004b7aba}, !- Zone Air Node Name
  {c0415ac0-a4e9-42f0-8731-4eecca4de310}, !- Zone Return Air Port List
  ,                                       !- Primary Daylighting Control Name
  ,                                       !- Fraction of Zone Controlled by Primary Daylighting Control
  ,                                       !- Secondary Daylighting Control Name
  ,                                       !- Fraction of Zone Controlled by Secondary Daylighting Control
  ,                                       !- Illuminance Map Name
  ,                                       !- Group Rendering Name
  {9bb52a6a-654b-4e11-92b4-02a9ed81dd1e}, !- Thermostat Name
  No;                                     !- Use Ideal Air Loads

OS:Node,
  {92b4a319-b93d-49e7-a37d-e0e44970ea33}, !- Handle
  Node 1,                                 !- Name
  {e6cdb2ad-0e99-4a15-8d68-3db2004b7aba}, !- Inlet Port
  ;                                       !- Outlet Port

OS:Connection,
  {e6cdb2ad-0e99-4a15-8d68-3db2004b7aba}, !- Handle
  {ba812d2a-0942-4860-b28b-f861b8815c86}, !- Source Object
  11,                                     !- Outlet Port
  {92b4a319-b93d-49e7-a37d-e0e44970ea33}, !- Target Object
  2;                                      !- Inlet Port

OS:PortList,
  {ee2bf144-4172-49f3-99f1-d88ffbf8e438}, !- Handle
  {ba812d2a-0942-4860-b28b-f861b8815c86}, !- HVAC Component
  {c239c794-c190-436b-a302-25c3813d9fec}; !- Port 1

OS:PortList,
  {188837fd-90a7-4f65-a888-2b5946ee21db}, !- Handle
  {ba812d2a-0942-4860-b28b-f861b8815c86}; !- HVAC Component

OS:PortList,
  {c0415ac0-a4e9-42f0-8731-4eecca4de310}, !- Handle
  {ba812d2a-0942-4860-b28b-f861b8815c86}, !- HVAC Component
  {27f485d6-14e2-476d-9814-b5d924a8d7b5}; !- Port 1

OS:Sizing:Zone,
  {5b462267-539a-4244-bf1a-1e3880666da6}, !- Handle
  {ba812d2a-0942-4860-b28b-f861b8815c86}, !- Zone or ZoneList Name
  SupplyAirTemperature,                   !- Zone Cooling Design Supply Air Temperature Input Method
  14,                                     !- Zone Cooling Design Supply Air Temperature {C}
  11.11,                                  !- Zone Cooling Design Supply Air Temperature Difference {deltaC}
  SupplyAirTemperature,                   !- Zone Heating Design Supply Air Temperature Input Method
  40,                                     !- Zone Heating Design Supply Air Temperature {C}
  11.11,                                  !- Zone Heating Design Supply Air Temperature Difference {deltaC}
  0.0085,                                 !- Zone Cooling Design Supply Air Humidity Ratio {kg-H2O/kg-air}
  0.008,                                  !- Zone Heating Design Supply Air Humidity Ratio {kg-H2O/kg-air}
  ,                                       !- Zone Heating Sizing Factor
  ,                                       !- Zone Cooling Sizing Factor
  DesignDay,                              !- Cooling Design Air Flow Method
  ,                                       !- Cooling Design Air Flow Rate {m3/s}
  ,                                       !- Cooling Minimum Air Flow per Zone Floor Area {m3/s-m2}
  ,                                       !- Cooling Minimum Air Flow {m3/s}
  ,                                       !- Cooling Minimum Air Flow Fraction
  DesignDay,                              !- Heating Design Air Flow Method
  ,                                       !- Heating Design Air Flow Rate {m3/s}
  ,                                       !- Heating Maximum Air Flow per Zone Floor Area {m3/s-m2}
  ,                                       !- Heating Maximum Air Flow {m3/s}
  ,                                       !- Heating Maximum Air Flow Fraction
  No,                                     !- Account for Dedicated Outdoor Air System
  NeutralSupplyAir,                       !- Dedicated Outdoor Air System Control Strategy
  autosize,                               !- Dedicated Outdoor Air Low Setpoint Temperature for Design {C}
  autosize,                               !- Dedicated Outdoor Air High Setpoint Temperature for Design {C}
  Sensible Load Only No Latent Load,      !- Zone Load Sizing Method
  HumidityRatioDifference,                !- Zone Latent Cooling Design Supply Air Humidity Ratio Input Method
  ,                                       !- Zone Dehumidification Design Supply Air Humidity Ratio {kgWater/kgDryAir}
  0.005,                                  !- Zone Cooling Design Supply Air Humidity Ratio Difference {kgWater/kgDryAir}
  HumidityRatioDifference,                !- Zone Latent Heating Design Supply Air Humidity Ratio Input Method
  ,                                       !- Zone Humidification Design Supply Air Humidity Ratio {kgWater/kgDryAir}
  0.005,                                  !- Zone Humidification Design Supply Air Humidity Ratio Difference {kgWater/kgDryAir}
  ,                                       !- Zone Humidistat Dehumidification Set Point Schedule Name
  ,                                       !- Zone Humidistat Humidification Set Point Schedule Name
  ,                                       !- Design Zone Air Distribution Effectiveness in Cooling Mode
  ,                                       !- Design Zone Air Distribution Effectiveness in Heating Mode
  ,                                       !- Design Zone Secondary Recirculation Fraction {dimensionless}
  ,                                       !- Design Minimum Zone Ventilation Efficiency {dimensionless}
  Coincident;                             !- Sizing Option

OS:ZoneHVAC:EquipmentList,
  {c0c9ecc7-c051-4bc4-9428-8e0aab6caded}, !- Handle
  Zone HVAC Equipment List 1,             !- Name
  {ba812d2a-0942-4860-b28b-f861b8815c86}, !- Thermal Zone
  ,                                       !- Load Distribution Scheme
  {91cfec03-01c4-4a3e-90fe-481f6efd0a9e}, !- Zone Equipment 1
  1,                                      !- Zone Equipment Cooling Sequence 1
  1,                                      !- Zone Equipment Heating or No-Load Sequence 1
  {61e86705-6733-4f4c-ad7d-f202e5a46e61}, !- Zone Equipment Sequential Cooling Fraction Schedule Name 1
  {5387bf21-b24e-4ded-96cd-b0d98422e08b}; !- Zone Equipment Sequential Heating Fraction Schedule Name 1

OS:AdditionalProperties,
  {62366b78-97d2-4115-8502-d68300fe5d8e}, !- Handle
  {ba812d2a-0942-4860-b28b-f861b8815c86}, !- Object Name
  ObjectType,                             !- Feature Name 1
  String,                                 !- Feature Data Type 1
  conditioned space;                      !- Feature Value 1

OS:Space,
  {96a9e490-8a61-4862-a7b7-06de34cfc1ea}, !- Handle
  conditioned space 1,                    !- Name
  ,                                       !- Space Type Name
  ,                                       !- Default Construction Set Name
  ,                                       !- Default Schedule Set Name
  ,                                       !- Direction of Relative North {deg}
  ,                                       !- X Origin {m}
  ,                                       !- Y Origin {m}
  ,                                       !- Z Origin {m}
  ,                                       !- Building Story Name
  {ba812d2a-0942-4860-b28b-f861b8815c86}, !- Thermal Zone Name
  ,                                       !- Part of Total Floor Area
  ,                                       !- Design Specification Outdoor Air Object Name
  ,                                       !- Building Unit Name
  692.06373070848;                        !- Volume {m3}

OS:Schedule:Ruleset,
  {3f9d4b75-f7b7-4eaf-b630-7d6d8f8fae34}, !- Handle
  heating setpoint,                       !- Name
  {fcec40fc-87fe-4536-92f6-8206e51fd458}, !- Schedule Type Limits Name
  {49e23711-ada6-420e-9b70-85110a8c4cc2}; !- Default Day Schedule Name

OS:Schedule:Day,
  {49e23711-ada6-420e-9b70-85110a8c4cc2}, !- Handle
  heating setpoint default day,           !- Name
  {fcec40fc-87fe-4536-92f6-8206e51fd458}, !- Schedule Type Limits Name
  ,                                       !- Interpolate to Timestep
  24,                                     !- Hour 1
  0,                                      !- Minute 1
  0;                                      !- Value Until Time 1

OS:Schedule:Rule,
  {4db516e3-d668-4df9-bd9f-5a8c181cc3ea}, !- Handle
  heating setpoint allday rule,           !- Name
  {3f9d4b75-f7b7-4eaf-b630-7d6d8f8fae34}, !- Schedule Ruleset Name
  0,                                      !- Rule Order
  {1bf48c65-7cc4-4391-b020-e37304d62997}, !- Day Schedule Name
  Yes,                                    !- Apply Sunday
  Yes,                                    !- Apply Monday
  Yes,                                    !- Apply Tuesday
  Yes,                                    !- Apply Wednesday
  Yes,                                    !- Apply Thursday
  Yes,                                    !- Apply Friday
  Yes,                                    !- Apply Saturday
  DateRange,                              !- Date Specification Type
  1,                                      !- Start Month
  1,                                      !- Start Day
  12,                                     !- End Month
  31;                                     !- End Day

OS:Schedule:Day,
  {1bf48c65-7cc4-4391-b020-e37304d62997}, !- Handle
  heating setpoint day,                   !- Name
  {fcec40fc-87fe-4536-92f6-8206e51fd458}, !- Schedule Type Limits Name
  ,                                       !- Interpolate to Timestep
  24,                                     !- Hour 1
  0,                                      !- Minute 1
  20;                                     !- Value Until Time 1

OS:Schedule:Ruleset,
  {cadd6db3-c7be-492f-b7ec-faa1be43a042}, !- Handle
  cooling setpoint,                       !- Name
  {fcec40fc-87fe-4536-92f6-8206e51fd458}, !- Schedule Type Limits Name
  {b25672b4-3c47-4805-a5c1-66560cd8d90c}; !- Default Day Schedule Name

OS:Schedule:Day,
  {b25672b4-3c47-4805-a5c1-66560cd8d90c}, !- Handle
  cooling setpoint default day,           !- Name
  {fcec40fc-87fe-4536-92f6-8206e51fd458}, !- Schedule Type Limits Name
  ,                                       !- Interpolate to Timestep
  24,                                     !- Hour 1
  0,                                      !- Minute 1
  0;                                      !- Value Until Time 1

OS:Schedule:Rule,
  {42000a13-0eb0-44eb-8e42-15bfd20f14a5}, !- Handle
  cooling setpoint allday rule,           !- Name
  {cadd6db3-c7be-492f-b7ec-faa1be43a042}, !- Schedule Ruleset Name
  0,                                      !- Rule Order
  {2f008cac-e099-41b5-b477-b5643289f4a7}, !- Day Schedule Name
  Yes,                                    !- Apply Sunday
  Yes,                                    !- Apply Monday
  Yes,                                    !- Apply Tuesday
  Yes,                                    !- Apply Wednesday
  Yes,                                    !- Apply Thursday
  Yes,                                    !- Apply Friday
  Yes,                                    !- Apply Saturday
  DateRange,                              !- Date Specification Type
  1,                                      !- Start Month
  1,                                      !- Start Day
  12,                                     !- End Month
  31;                                     !- End Day

OS:Schedule:Day,
  {2f008cac-e099-41b5-b477-b5643289f4a7}, !- Handle
  cooling setpoint day,                   !- Name
  {fcec40fc-87fe-4536-92f6-8206e51fd458}, !- Schedule Type Limits Name
  ,                                       !- Interpolate to Timestep
  24,                                     !- Hour 1
  0,                                      !- Minute 1
  25.5555555555556;                       !- Value Until Time 1

OS:ThermostatSetpoint:DualSetpoint,
  {9bb52a6a-654b-4e11-92b4-02a9ed81dd1e}, !- Handle
  conditioned space temperature setpoint, !- Name
  {3f9d4b75-f7b7-4eaf-b630-7d6d8f8fae34}, !- Heating Setpoint Temperature Schedule Name
  {cadd6db3-c7be-492f-b7ec-faa1be43a042}, !- Cooling Setpoint Temperature Schedule Name
  0;                                      !- Temperature Difference Between Cutout And Setpoint {deltaC}

OS:ScheduleTypeLimits,
  {fcec40fc-87fe-4536-92f6-8206e51fd458}, !- Handle
  Temperature,                            !- Name
  ,                                       !- Lower Limit Value
  ,                                       !- Upper Limit Value
  Continuous,                             !- Numeric Type
  Temperature;                            !- Unit Type

OS:Surface,
  {ea51d778-e8a9-4209-9d1c-6899f9fb1fdf}, !- Handle
  Roof1,                                  !- Name
  RoofCeiling,                            !- Surface Type
  {f3706ebf-23d6-4b2a-bc99-af9f85a30966}, !- Construction Name
  {c6b675ac-6748-49aa-8448-da2e23e2281b}, !- Space Name
  Outdoors,                               !- Outside Boundary Condition
  ,                                       !- Outside Boundary Condition Object
  SunExposed,                             !- Sun Exposure
  WindExposed,                            !- Wind Exposure
  ,                                       !- View Factor to Ground
  ,                                       !- Number of Vertices
  -26.9347048849634, 58.0557891618865, 2.4384, !- X,Y,Z Vertex 1 {m}
  -26.9347048849634, 46.7895631136661, 8.0715130241102, !- X,Y,Z Vertex 2 {m}
  -14.3386812381136, 46.7895631136661, 8.0715130241102, !- X,Y,Z Vertex 3 {m}
  -14.3386812381136, 58.0557891618865, 2.4384; !- X,Y,Z Vertex 4 {m}

OS:AdditionalProperties,
  {10c1b2dd-1154-48c8-ba10-5d4c2d0f9599}, !- Handle
  {ea51d778-e8a9-4209-9d1c-6899f9fb1fdf}, !- Object Name
  Length,                                 !- Feature Name 1
  Double,                                 !- Feature Data Type 1
  41.325536899113608,                     !- Feature Value 1
  Width,                                  !- Feature Name 2
  Double,                                 !- Feature Data Type 2
  41.325536899113601,                     !- Feature Value 2
  Azimuth,                                !- Feature Name 3
  Integer,                                !- Feature Data Type 3
  0,                                      !- Feature Value 3
  Tilt,                                   !- Feature Name 4
  Double,                                 !- Feature Data Type 4
  0.5,                                    !- Feature Value 4
  SurfaceType,                            !- Feature Name 5
  String,                                 !- Feature Data Type 5
  Roof;                                   !- Feature Value 5

OS:ThermalZone,
  {e46b4c26-a57a-4586-940d-a88bdd3bbbd2}, !- Handle
  attic - vented,                         !- Name
  1,                                      !- Multiplier
  ,                                       !- Ceiling Height {m}
  356.389957095237,                       !- Volume {m3}
  ,                                       !- Floor Area {m2}
  ,                                       !- Zone Inside Convection Algorithm
  ,                                       !- Zone Outside Convection Algorithm
  ,                                       !- Zone Conditioning Equipment List Name
  {cf11e12e-d1ad-4267-b7d7-50e9576148eb}, !- Zone Air Inlet Port List
  {64ee92de-e376-4448-9f7f-aad75565f01d}, !- Zone Air Exhaust Port List
  {937eb586-47f4-4a4f-86c8-0aa4d34ac1fb}, !- Zone Air Node Name
  {4ae1f896-3146-4fc4-bc5b-6c4e8b443cdd}, !- Zone Return Air Port List
  ,                                       !- Primary Daylighting Control Name
  ,                                       !- Fraction of Zone Controlled by Primary Daylighting Control
  ,                                       !- Secondary Daylighting Control Name
  ,                                       !- Fraction of Zone Controlled by Secondary Daylighting Control
  ,                                       !- Illuminance Map Name
  ,                                       !- Group Rendering Name
  ,                                       !- Thermostat Name
  No;                                     !- Use Ideal Air Loads

OS:Node,
  {42ba7cf7-a543-4888-8247-334a1365a469}, !- Handle
  Node 2,                                 !- Name
  {937eb586-47f4-4a4f-86c8-0aa4d34ac1fb}, !- Inlet Port
  ;                                       !- Outlet Port

OS:Connection,
  {937eb586-47f4-4a4f-86c8-0aa4d34ac1fb}, !- Handle
  {e46b4c26-a57a-4586-940d-a88bdd3bbbd2}, !- Source Object
  11,                                     !- Outlet Port
  {42ba7cf7-a543-4888-8247-334a1365a469}, !- Target Object
  2;                                      !- Inlet Port

OS:PortList,
  {cf11e12e-d1ad-4267-b7d7-50e9576148eb}, !- Handle
  {e46b4c26-a57a-4586-940d-a88bdd3bbbd2}; !- HVAC Component

OS:PortList,
  {64ee92de-e376-4448-9f7f-aad75565f01d}, !- Handle
  {e46b4c26-a57a-4586-940d-a88bdd3bbbd2}; !- HVAC Component

OS:PortList,
  {4ae1f896-3146-4fc4-bc5b-6c4e8b443cdd}, !- Handle
  {e46b4c26-a57a-4586-940d-a88bdd3bbbd2}; !- HVAC Component

OS:Sizing:Zone,
  {34b91fc0-8e76-43cd-9c4a-dbf47e1b85ad}, !- Handle
  {e46b4c26-a57a-4586-940d-a88bdd3bbbd2}, !- Zone or ZoneList Name
  SupplyAirTemperature,                   !- Zone Cooling Design Supply Air Temperature Input Method
  14,                                     !- Zone Cooling Design Supply Air Temperature {C}
  11.11,                                  !- Zone Cooling Design Supply Air Temperature Difference {deltaC}
  SupplyAirTemperature,                   !- Zone Heating Design Supply Air Temperature Input Method
  40,                                     !- Zone Heating Design Supply Air Temperature {C}
  11.11,                                  !- Zone Heating Design Supply Air Temperature Difference {deltaC}
  0.0085,                                 !- Zone Cooling Design Supply Air Humidity Ratio {kg-H2O/kg-air}
  0.008,                                  !- Zone Heating Design Supply Air Humidity Ratio {kg-H2O/kg-air}
  ,                                       !- Zone Heating Sizing Factor
  ,                                       !- Zone Cooling Sizing Factor
  DesignDay,                              !- Cooling Design Air Flow Method
  ,                                       !- Cooling Design Air Flow Rate {m3/s}
  ,                                       !- Cooling Minimum Air Flow per Zone Floor Area {m3/s-m2}
  ,                                       !- Cooling Minimum Air Flow {m3/s}
  ,                                       !- Cooling Minimum Air Flow Fraction
  DesignDay,                              !- Heating Design Air Flow Method
  ,                                       !- Heating Design Air Flow Rate {m3/s}
  ,                                       !- Heating Maximum Air Flow per Zone Floor Area {m3/s-m2}
  ,                                       !- Heating Maximum Air Flow {m3/s}
  ,                                       !- Heating Maximum Air Flow Fraction
  No,                                     !- Account for Dedicated Outdoor Air System
  NeutralSupplyAir,                       !- Dedicated Outdoor Air System Control Strategy
  autosize,                               !- Dedicated Outdoor Air Low Setpoint Temperature for Design {C}
  autosize,                               !- Dedicated Outdoor Air High Setpoint Temperature for Design {C}
  Sensible Load Only No Latent Load,      !- Zone Load Sizing Method
  HumidityRatioDifference,                !- Zone Latent Cooling Design Supply Air Humidity Ratio Input Method
  ,                                       !- Zone Dehumidification Design Supply Air Humidity Ratio {kgWater/kgDryAir}
  0.005,                                  !- Zone Cooling Design Supply Air Humidity Ratio Difference {kgWater/kgDryAir}
  HumidityRatioDifference,                !- Zone Latent Heating Design Supply Air Humidity Ratio Input Method
  ,                                       !- Zone Humidification Design Supply Air Humidity Ratio {kgWater/kgDryAir}
  0.005,                                  !- Zone Humidification Design Supply Air Humidity Ratio Difference {kgWater/kgDryAir}
  ,                                       !- Zone Humidistat Dehumidification Set Point Schedule Name
  ,                                       !- Zone Humidistat Humidification Set Point Schedule Name
  ,                                       !- Design Zone Air Distribution Effectiveness in Cooling Mode
  ,                                       !- Design Zone Air Distribution Effectiveness in Heating Mode
  ,                                       !- Design Zone Secondary Recirculation Fraction {dimensionless}
  ,                                       !- Design Minimum Zone Ventilation Efficiency {dimensionless}
  Coincident;                             !- Sizing Option

OS:ZoneHVAC:EquipmentList,
  {fe2ecb08-fa50-4c35-a296-ae0b28529bde}, !- Handle
  Zone HVAC Equipment List 2,             !- Name
  {e46b4c26-a57a-4586-940d-a88bdd3bbbd2}; !- Thermal Zone

OS:AdditionalProperties,
  {c8308fb1-bec9-4ea1-8945-088a6d153434}, !- Handle
  {e46b4c26-a57a-4586-940d-a88bdd3bbbd2}, !- Object Name
  ObjectType,                             !- Feature Name 1
  String,                                 !- Feature Data Type 1
  attic - vented;                         !- Feature Value 1

OS:Space,
  {c6b675ac-6748-49aa-8448-da2e23e2281b}, !- Handle
  attic - vented 1,                       !- Name
  ,                                       !- Space Type Name
  ,                                       !- Default Construction Set Name
  ,                                       !- Default Schedule Set Name
  ,                                       !- Direction of Relative North {deg}
  ,                                       !- X Origin {m}
  ,                                       !- Y Origin {m}
  ,                                       !- Z Origin {m}
  ,                                       !- Building Story Name
  {e46b4c26-a57a-4586-940d-a88bdd3bbbd2}, !- Thermal Zone Name
  ,                                       !- Part of Total Floor Area
  ,                                       !- Design Specification Outdoor Air Object Name
  ,                                       !- Building Unit Name
  356.389957095237;                       !- Volume {m3}

OS:Material,
  {a85714cb-664c-420b-97fd-b5512b7a2f80}, !- Handle
  asphalt or fiberglass shingles,         !- Name
  Rough,                                  !- Roughness
  0.00635,                                !- Thickness {m}
  0.162714,                               !- Conductivity {W/m-K}
  1121.4,                                 !- Density {kg/m3}
  1465.45,                                !- Specific Heat {J/kg-K}
  0.9,                                    !- Thermal Absorptance
  0.85,                                   !- Solar Absorptance