
OS:Version,
  {514b3aa4-3d9e-4392-a122-de27527b9e33}, !- Handle
  3.10.0;                                 !- Version Identifier

OS:SimulationControl,
  {c3c8ea7f-d1f0-4a7e-904e-3e5833c4b05c}, !- Handle
  ,                                       !- Do Zone Sizing Calculation
  ,                                       !- Do System Sizing Calculation
  ,                                       !- Do Plant Sizing Calculation
  No;                                     !- Run Simulation for Sizing Periods

OS:Timestep,
  {42844eba-ccd8-4a64-9ad0-fe83c454fbe4}, !- Handle
  1;                                      !- Number of Timesteps per Hour

OS:ShadowCalculation,
  {989aab39-d983-40c5-89ac-e7d7a599ed4a}, !- Handle
  PolygonClipping,                        !- Shading Calculation Method
  ,                                       !- Shading Calculation Update Frequency Method
  20,                                     !- Shading Calculation Update Frequency
  200,                                    !- Maximum Figures in Shadow Overlap Calculations
  ,                                       !- Polygon Clipping Algorithm
  512,                                    !- Pixel Counting Resolution
  ,                                       !- Sky Diffuse Modeling Algorithm
  No,                                     !- Output External Shading Calculation Results
  No,                                     !- Disable Self-Shading Within Shading Zone Groups
  No;                                     !- Disable Self-Shading From Shading Zone Groups to Other Zones

OS:SurfaceConvectionAlgorithm:Outside,
  {34c511e1-795b-4c1a-bd50-1bf1bfdec367}, !- Handle
  DOE-2;                                  !- Algorithm

OS:SurfaceConvectionAlgorithm:Inside,
  {b5177366-5de6-4404-85ff-6fafd940e69e}, !- Handle
  TARP;                                   !- Algorithm

OS:ZoneCapacitanceMultiplier:ResearchSpecial,
  {73b86860-eb66-4f34-bf04-ef16064751b8}, !- Handle
  7,                                      !- Temperature Capacity Multiplier
  15,                                     !- Humidity Capacity Multiplier
  ;                                       !- Carbon Dioxide Capacity Multiplier

OS:ConvergenceLimits,
  {a6d5de2b-a28e-4d06-9988-1821ff0a7f23}, !- Handle
  0;                                      !- Minimum System Timestep {minutes}

OS:RunPeriod,
  {8d1b53cb-ffcf-4966-9928-ce1e3f7bf228}, !- Handle
  Run Period 1,                           !- Name
  1,                                      !- Begin Month
  1,                                      !- Begin Day of Month
  12,                                     !- End Month
  31,                                     !- End Day of Month
  ,                                       !- Use Weather File Holidays and Special Days
  ,                                       !- Use Weather File Daylight Saving Period
  ,                                       !- Apply Weekend Holiday Rule
  ,                                       !- Use Weather File Rain Indicators
  ,                                       !- Use Weather File Snow Indicators
  ;                                       !- Number of Times Runperiod to be Repeated

OS:PerformancePrecisionTradeoffs,
  {434a9155-63ef-4a45-a983-23094d1e973e}, !- Handle
  ,                                       !- Use Coil Direct Solutions
  CarrollMRT;                             !- Zone Radiant Exchange Algorithm

OS:WeatherFile,
  {257c1016-3ca7-4225-9027-25313984b75e}, !- Handle
  Buffalo Niagara Intl Ap,                !- City
  NY,                                     !- State Province Region
  USA,                                    !- Country
  TMY3,                                   !- Data Source
  725280,                                 !- WMO Number
  42.93,                                  !- Latitude {deg}
  -78.73,                                 !- Longitude {deg}
  -5,                                     !- Time Zone {hr}
  215,                                    !- Elevation {m}
  /Users/nmoore/github/urbanopt-example-geojson-project/example_project/weather/USA_NY_Buffalo-Greater.Buffalo.Intl.AP.725280_TMY3.epw, !- Url
  6B50E0FF,                               !- Checksum
  ,                                       !- Start Date Actual Year
  Sunday;                                 !- Start Day of Week

OS:YearDescription,
  {b4a75040-9dbb-4071-832e-84a7772fa298}, !- Handle
  2007,                                   !- Calendar Year
  ,                                       !- Day of Week for Start Day
  ;                                       !- Is Leap Year

OS:Site,
  {67967973-3f2b-4e5e-882a-d0227bdd01fc}, !- Handle
  Buffalo Niagara Intl Ap_NY,             !- Name
  42.93,                                  !- Latitude {deg}
  -78.73,                                 !- Longitude {deg}
  -5,                                     !- Time Zone {hr}
  215,                                    !- Elevation {m}
  Suburbs,                                !- Terrain
  Yes;                                    !- Keep Site Location Information

OS:RunPeriodControl:DaylightSavingTime,
  {b494f7d6-a289-42d5-b466-556eb844dc43}, !- Handle
  Mar 12,                                 !- Start Date
  Nov 5;                                  !- End Date

OS:Site:GroundTemperature:Shallow,
  {ba410ecf-67f0-4397-b9f2-d195f1ec7e90}, !- Handle
  4.30207395723828,                       !- January Surface Ground Temperature {C}
  2.29327249652502,                       !- February Surface Ground Temperature {C}
  2.13240047156047,                       !- March Surface Ground Temperature {C}
  3.08567940719286,                       !- April Surface Ground Temperature {C}
  6.91256312497526,                       !- May Surface Ground Temperature {C}
  10.7216195949507,                       !- June Surface Ground Temperature {C}
  14.0238679822574,                       !- July Surface Ground Temperature {C}
  16.1157611184724,                       !- August Surface Ground Temperature {C}
  16.2934789303462,                       !- September Surface Ground Temperature {C}
  14.5920754632847,                       !- October Surface Ground Temperature {C}
  11.374036348653,                        !- November Surface Ground Temperature {C}
  7.68182621661674;                       !- December Surface Ground Temperature {C}

OS:ThermalZone,
  {0f66dcbe-d5b2-4be1-8f2d-85ba47a379c8}, !- Handle
  conditioned space,                      !- Name
  1,                                      !- Multiplier
  ,                                       !- Ceiling Height {m}
  692.06373070848,                        !- Volume {m3}
  ,                                       !- Floor Area {m2}
  ,                                       !- Zone Inside Convection Algorithm
  ,                                       !- Zone Outside Convection Algorithm
  ,                                       !- Zone Conditioning Equipment List Name
  {e9c82122-2aa7-4152-ba0a-080e263451ef}, !- Zone Air Inlet Port List
  {6b846a72-faa5-4e90-bb62-550483e2539e}, !- Zone Air Exhaust Port List
  {9215fc84-7286-465d-90ec-b26131fda64b}, !- Zone Air Node Name
  {4c125634-e0ec-45ae-9bda-dd1470fedf43}, !- Zone Return Air Port List
  ,                                       !- Primary Daylighting Control Name
  ,                                       !- Fraction of Zone Controlled by Primary Daylighting Control
  ,                                       !- Secondary Daylighting Control Name
  ,                                       !- Fraction of Zone Controlled by Secondary Daylighting Control
  ,                                       !- Illuminance Map Name
  ,                                       !- Group Rendering Name
  {94eb98e9-7e55-4280-81a5-9a06b6b1fb96}, !- Thermostat Name
  No;                                     !- Use Ideal Air Loads

OS:Node,
  {0bca5671-9153-4fa9-84a1-b0ec821f2ce9}, !- Handle
  Node 1,                                 !- Name
  {9215fc84-7286-465d-90ec-b26131fda64b}, !- Inlet Port
  ;                                       !- Outlet Port

OS:Connection,
  {9215fc84-7286-465d-90ec-b26131fda64b}, !- Handle
  {0f66dcbe-d5b2-4be1-8f2d-85ba47a379c8}, !- Source Object
  11,                                     !- Outlet Port
  {0bca5671-9153-4fa9-84a1-b0ec821f2ce9}, !- Target Object
  2;                                      !- Inlet Port

OS:PortList,
  {e9c82122-2aa7-4152-ba0a-080e263451ef}, !- Handle
  {0f66dcbe-d5b2-4be1-8f2d-85ba47a379c8}, !- HVAC Component
  {11aaab92-09ad-4e93-9050-3c4dc43e12b5}; !- Port 1

OS:PortList,
  {6b846a72-faa5-4e90-bb62-550483e2539e}, !- Handle
  {0f66dcbe-d5b2-4be1-8f2d-85ba47a379c8}; !- HVAC Component

OS:PortList,
  {4c125634-e0ec-45ae-9bda-dd1470fedf43}, !- Handle
  {0f66dcbe-d5b2-4be1-8f2d-85ba47a379c8}, !- HVAC Component
  {320ac576-a691-4c35-9e0a-4f213ee4a765}; !- Port 1

OS:Sizing:Zone,
  {0068e45f-3fae-415f-90e8-4e255dc87286}, !- Handle
  {0f66dcbe-d5b2-4be1-8f2d-85ba47a379c8}, !- Zone or ZoneList Name
  SupplyAirTemperature,                   !- Zone Cooling Design Supply Air Temperature Input Method
  14,                                     !- Zone Cooling Design Supply Air Temperature {C}
  11.11,                                  !- Zone Cooling Design Supply Air Temperature Difference {deltaC}
  SupplyAirTemperature,                   !- Zone Heating Design Supply Air Temperature Input Method
  40,                                     !- Zone Heating Design Supply Air Temperature {C}
  11.11,                                  !- Zone Heating Design Supply Air Temperature Difference {deltaC}
  0.0085,                                 !- Zone Cooling Design Supply Air Humidity Ratio {kg-H2O/kg-air}
  0.008,                                  !- Zone Heating Design Supply Air Humidity Ratio {kg-H2O/kg-air}
  ,                                       !- Zone Heating Sizing Factor
  ,                                       !- Zone Cooling Sizing Factor
  DesignDay,                              !- Cooling Design Air Flow Method
  ,                                       !- Cooling Design Air Flow Rate {m3/s}
  ,                                       !- Cooling Minimum Air Flow per Zone Floor Area {m3/s-m2}
  ,                                       !- Cooling Minimum Air Flow {m3/s}
  ,                                       !- Cooling Minimum Air Flow Fraction
  DesignDay,                              !- Heating Design Air Flow Method
  ,                                       !- Heating Design Air Flow Rate {m3/s}
  ,                                       !- Heating Maximum Air Flow per Zone Floor Area {m3/s-m2}
  ,                                       !- Heating Maximum Air Flow {m3/s}
  ,                                       !- Heating Maximum Air Flow Fraction
  No,                                     !- Account for Dedicated Outdoor Air System
  NeutralSupplyAir,                       !- Dedicated Outdoor Air System Control Strategy
  autosize,                               !- Dedicated Outdoor Air Low Setpoint Temperature for Design {C}
  autosize,                               !- Dedicated Outdoor Air High Setpoint Temperature for Design {C}
  Sensible Load Only No Latent Load,      !- Zone Load Sizing Method
  HumidityRatioDifference,                !- Zone Latent Cooling Design Supply Air Humidity Ratio Input Method
  ,                                       !- Zone Dehumidification Design Supply Air Humidity Ratio {kgWater/kgDryAir}
  0.005,                                  !- Zone Cooling Design Supply Air Humidity Ratio Difference {kgWater/kgDryAir}
  HumidityRatioDifference,                !- Zone Latent Heating Design Supply Air Humidity Ratio Input Method
  ,                                       !- Zone Humidification Design Supply Air Humidity Ratio {kgWater/kgDryAir}
  0.005,                                  !- Zone Humidification Design Supply Air Humidity Ratio Difference {kgWater/kgDryAir}
  ,                                       !- Zone Humidistat Dehumidification Set Point Schedule Name
  ,                                       !- Zone Humidistat Humidification Set Point Schedule Name
  ,                                       !- Design Zone Air Distribution Effectiveness in Cooling Mode
  ,                                       !- Design Zone Air Distribution Effectiveness in Heating Mode
  ,                                       !- Design Zone Secondary Recirculation Fraction {dimensionless}
  ,                                       !- Design Minimum Zone Ventilation Efficiency {dimensionless}
  Coincident;                             !- Sizing Option

OS:ZoneHVAC:EquipmentList,
  {81e2999b-a0cb-4cda-aeb9-8b1259dd577e}, !- Handle
  Zone HVAC Equipment List 1,             !- Name
  {0f66dcbe-d5b2-4be1-8f2d-85ba47a379c8}, !- Thermal Zone
  ,                                       !- Load Distribution Scheme
  {ade1097d-0281-4ccd-8ca9-dc7f919312f0}, !- Zone Equipment 1
  1,                                      !- Zone Equipment Cooling Sequence 1
  1,                                      !- Zone Equipment Heating or No-Load Sequence 1
  {4749ba58-615e-40ba-9e83-9e081bbf18ff}, !- Zone Equipment Sequential Cooling Fraction Schedule Name 1
  {a8a3fe13-ce6b-4b49-8037-a087c781a58e}; !- Zone Equipment Sequential Heating Fraction Schedule Name 1

OS:AdditionalProperties,
  {307a3e33-a131-4a4c-8d2e-701ff9a9d18d}, !- Handle
  {0f66dcbe-d5b2-4be1-8f2d-85ba47a379c8}, !- Object Name
  ObjectType,                             !- Feature Name 1
  String,                                 !- Feature Data Type 1
  conditioned space;                      !- Feature Value 1

OS:Space,
  {54240b31-041d-4e6b-b687-54fc068147dc}, !- Handle
  conditioned space 1,                    !- Name
  ,                                       !- Space Type Name
  ,                                       !- Default Construction Set Name
  ,                                       !- Default Schedule Set Name
  ,                                       !- Direction of Relative North {deg}
  ,                                       !- X Origin {m}
  ,                                       !- Y Origin {m}
  ,                                       !- Z Origin {m}
  ,                                       !- Building Story Name
  {0f66dcbe-d5b2-4be1-8f2d-85ba47a379c8}, !- Thermal Zone Name
  ,                                       !- Part of Total Floor Area
  ,                                       !- Design Specification Outdoor Air Object Name
  ,                                       !- Building Unit Name
  692.06373070848;                        !- Volume {m3}

OS:Schedule:Ruleset,
  {9d172cfd-4317-485f-aba0-90838ccab846}, !- Handle
  heating setpoint,                       !- Name
  {017fdb3c-76d4-4ac3-8948-02f1200f7006}, !- Schedule Type Limits Name
  {452ac09e-3af9-43d5-b30d-38b27ca4b677}; !- Default Day Schedule Name

OS:Schedule:Day,
  {452ac09e-3af9-43d5-b30d-38b27ca4b677}, !- Handle
  heating setpoint default day,           !- Name
  {017fdb3c-76d4-4ac3-8948-02f1200f7006}, !- Schedule Type Limits Name
  ,                                       !- Interpolate to Timestep
  24,                                     !- Hour 1
  0,                                      !- Minute 1
  0;                                      !- Value Until Time 1

OS:Schedule:Rule,
  {d6d6851b-f1d2-4318-afdb-b5f0a6d90fd8}, !- Handle
  heating setpoint allday rule,           !- Name
  {9d172cfd-4317-485f-aba0-90838ccab846}, !- Schedule Ruleset Name
  0,                                      !- Rule Order
  {9ccaa34b-b511-4ea9-937c-49d769f3f047}, !- Day Schedule Name
  Yes,                                    !- Apply Sunday
  Yes,                                    !- Apply Monday
  Yes,                                    !- Apply Tuesday
  Yes,                                    !- Apply Wednesday
  Yes,                                    !- Apply Thursday
  Yes,                                    !- Apply Friday
  Yes,                                    !- Apply Saturday
  DateRange,                              !- Date Specification Type
  1,                                      !- Start Month
  1,                                      !- Start Day
  12,                                     !- End Month
  31;                                     !- End Day

OS:Schedule:Day,
  {9ccaa34b-b511-4ea9-937c-49d769f3f047}, !- Handle
  heating setpoint day,                   !- Name
  {017fdb3c-76d4-4ac3-8948-02f1200f7006}, !- Schedule Type Limits Name
  ,                                       !- Interpolate to Timestep
  24,                                     !- Hour 1
  0,                                      !- Minute 1
  20;                                     !- Value Until Time 1

OS:Schedule:Ruleset,
  {a202a06f-7c98-491f-b7e1-8aefc65ab2ab}, !- Handle
  cooling setpoint,                       !- Name
  {017fdb3c-76d4-4ac3-8948-02f1200f7006}, !- Schedule Type Limits Name
  {4c08afc0-fd31-45b8-849c-9206d4e05c1c}; !- Default Day Schedule Name

OS:Schedule:Day,
  {4c08afc0-fd31-45b8-849c-9206d4e05c1c}, !- Handle
  cooling setpoint default day,           !- Name
  {017fdb3c-76d4-4ac3-8948-02f1200f7006}, !- Schedule Type Limits Name
  ,                                       !- Interpolate to Timestep
  24,                                     !- Hour 1
  0,                                      !- Minute 1
  0;                                      !- Value Until Time 1

OS:Schedule:Rule,
  {960af793-eeaa-4b43-afe3-56ea8c81360b}, !- Handle
  cooling setpoint allday rule,           !- Name
  {a202a06f-7c98-491f-b7e1-8aefc65ab2ab}, !- Schedule Ruleset Name
  0,                                      !- Rule Order
  {fa1b57af-1e9e-423e-b73e-9404d5841fa0}, !- Day Schedule Name
  Yes,                                    !- Apply Sunday
  Yes,                                    !- Apply Monday
  Yes,                                    !- Apply Tuesday
  Yes,                                    !- Apply Wednesday
  Yes,                                    !- Apply Thursday
  Yes,                                    !- Apply Friday
  Yes,                                    !- Apply Saturday
  DateRange,                              !- Date Specification Type
  1,                                      !- Start Month
  1,                                      !- Start Day
  12,                                     !- End Month
  31;                                     !- End Day

OS:Schedule:Day,
  {fa1b57af-1e9e-423e-b73e-9404d5841fa0}, !- Handle
  cooling setpoint day,                   !- Name
  {017fdb3c-76d4-4ac3-8948-02f1200f7006}, !- Schedule Type Limits Name
  ,                                       !- Interpolate to Timestep
  24,                                     !- Hour 1
  0,                                      !- Minute 1
  25.5555555555556;                       !- Value Until Time 1

OS:ThermostatSetpoint:DualSetpoint,
  {94eb98e9-7e55-4280-81a5-9a06b6b1fb96}, !- Handle
  conditioned space temperature setpoint, !- Name
  {9d172cfd-4317-485f-aba0-90838ccab846}, !- Heating Setpoint Temperature Schedule Name
  {a202a06f-7c98-491f-b7e1-8aefc65ab2ab}, !- Cooling Setpoint Temperature Schedule Name
  0;                                      !- Temperature Difference Between Cutout And Setpoint {deltaC}

OS:ScheduleTypeLimits,
  {017fdb3c-76d4-4ac3-8948-02f1200f7006}, !- Handle
  Temperature,                            !- Name
  ,                                       !- Lower Limit Value
  ,                                       !- Upper Limit Value
  Continuous,                             !- Numeric Type
  Temperature;                            !- Unit Type

OS:Surface,
  {6fb664ed-e8fe-4d6f-bcad-430e93594d9e}, !- Handle
  Roof1,                                  !- Name
  RoofCeiling,                            !- Surface Type
  {ae1e7477-66f5-426f-80d0-f4c5e96b1398}, !- Construction Name
  {3539cf59-47f1-4fb2-8de3-f3a2874d0335}, !- Space Name
  Outdoors,                               !- Outside Boundary Condition
  ,                                       !- Outside Boundary Condition Object
  SunExposed,                             !- Sun Exposure
  WindExposed,                            !- Wind Exposure
  ,                                       !- View Factor to Ground
  ,                                       !- Number of Vertices
  -26.9347048849634, 58.0557891618865, 2.4384, !- X,Y,Z Vertex 1 {m}
  -26.9347048849634, 46.7895631136661, 8.0715130241102, !- X,Y,Z Vertex 2 {m}
  -14.3386812381136, 46.7895631136661, 8.0715130241102, !- X,Y,Z Vertex 3 {m}
  -14.3386812381136, 58.0557891618865, 2.4384; !- X,Y,Z Vertex 4 {m}

OS:AdditionalProperties,
  {6665d5be-0b30-406b-a9da-e054d7910fa1}, !- Handle
  {6fb664ed-e8fe-4d6f-bcad-430e93594d9e}, !- Object Name
  Length,                                 !- Feature Name 1
  Double,                                 !- Feature Data Type 1
  41.325536899113608,                     !- Feature Value 1
  Width,                                  !- Feature Name 2
  Double,                                 !- Feature Data Type 2
  41.325536899113601,                     !- Feature Value 2
  Azimuth,                                !- Feature Name 3
  Integer,                                !- Feature Data Type 3
  0,                                      !- Feature Value 3
  Tilt,                                   !- Feature Name 4
  Double,                                 !- Feature Data Type 4
  0.5,                                    !- Feature Value 4
  SurfaceType,                            !- Feature Name 5
  String,                                 !- Feature Data Type 5
  Roof;                                   !- Feature Value 5

OS:ThermalZone,
  {d6eff6ba-1728-4338-ae93-c15bb0e9c259}, !- Handle
  attic - vented,                         !- Name
  1,                                      !- Multiplier
  ,                                       !- Ceiling Height {m}
  356.390921899745,                       !- Volume {m3}
  ,                                       !- Floor Area {m2}
  ,                                       !- Zone Inside Convection Algorithm
  ,                                       !- Zone Outside Convection Algorithm
  ,                                       !- Zone Conditioning Equipment List Name
  {d83f0039-7b90-4cdd-8a2b-c225fcc872be}, !- Zone Air Inlet Port List
  {9fb65b9d-5ed5-4303-9fff-66344346fd43}, !- Zone Air Exhaust Port List
  {485c4cea-7192-4105-9c9c-ba6667e9e9c4}, !- Zone Air Node Name
  {42408761-46e1-48fa-8710-01ab81c88711}, !- Zone Return Air Port List
  ,                                       !- Primary Daylighting Control Name
  ,                                       !- Fraction of Zone Controlled by Primary Daylighting Control
  ,                                       !- Secondary Daylighting Control Name
  ,                                       !- Fraction of Zone Controlled by Secondary Daylighting Control
  ,                                       !- Illuminance Map Name
  ,                                       !- Group Rendering Name
  ,                                       !- Thermostat Name
  No;                                     !- Use Ideal Air Loads

OS:Node,
  {845a233d-809d-42bb-ae14-eecf48f685d8}, !- Handle
  Node 2,                                 !- Name
  {485c4cea-7192-4105-9c9c-ba6667e9e9c4}, !- Inlet Port
  ;                                       !- Outlet Port

OS:Connection,
  {485c4cea-7192-4105-9c9c-ba6667e9e9c4}, !- Handle
  {d6eff6ba-1728-4338-ae93-c15bb0e9c259}, !- Source Object
  11,                                     !- Outlet Port
  {845a233d-809d-42bb-ae14-eecf48f685d8}, !- Target Object
  2;                                      !- Inlet Port

OS:PortList,
  {d83f0039-7b90-4cdd-8a2b-c225fcc872be}, !- Handle
  {d6eff6ba-1728-4338-ae93-c15bb0e9c259}; !- HVAC Component

OS:PortList,
  {9fb65b9d-5ed5-4303-9fff-66344346fd43}, !- Handle
  {d6eff6ba-1728-4338-ae93-c15bb0e9c259}; !- HVAC Component

OS:PortList,
  {42408761-46e1-48fa-8710-01ab81c88711}, !- Handle
  {d6eff6ba-1728-4338-ae93-c15bb0e9c259}; !- HVAC Component

OS:Sizing:Zone,
  {805a0a7f-8021-41e1-a212-3a9e7ae71d32}, !- Handle
  {d6eff6ba-1728-4338-ae93-c15bb0e9c259}, !- Zone or ZoneList Name
  SupplyAirTemperature,                   !- Zone Cooling Design Supply Air Temperature Input Method
  14,                                     !- Zone Cooling Design Supply Air Temperature {C}
  11.11,                                  !- Zone Cooling Design Supply Air Temperature Difference {deltaC}
  SupplyAirTemperature,                   !- Zone Heating Design Supply Air Temperature Input Method
  40,                                     !- Zone Heating Design Supply Air Temperature {C}
  11.11,                                  !- Zone Heating Design Supply Air Temperature Difference {deltaC}
  0.0085,                                 !- Zone Cooling Design Supply Air Humidity Ratio {kg-H2O/kg-air}
  0.008,                                  !- Zone Heating Design Supply Air Humidity Ratio {kg-H2O/kg-air}
  ,                                       !- Zone Heating Sizing Factor
  ,                                       !- Zone Cooling Sizing Factor
  DesignDay,                              !- Cooling Design Air Flow Method
  ,                                       !- Cooling Design Air Flow Rate {m3/s}
  ,                                       !- Cooling Minimum Air Flow per Zone Floor Area {m3/s-m2}
  ,                                       !- Cooling Minimum Air Flow {m3/s}
  ,                                       !- Cooling Minimum Air Flow Fraction
  DesignDay,                              !- Heating Design Air Flow Method
  ,                                       !- Heating Design Air Flow Rate {m3/s}
  ,                                       !- Heating Maximum Air Flow per Zone Floor Area {m3/s-m2}
  ,                                       !- Heating Maximum Air Flow {m3/s}
  ,                                       !- Heating Maximum Air Flow Fraction
  No,                                     !- Account for Dedicated Outdoor Air System
  NeutralSupplyAir,                       !- Dedicated Outdoor Air System Control Strategy
  autosize,                               !- Dedicated Outdoor Air Low Setpoint Temperature for Design {C}
  autosize,                               !- Dedicated Outdoor Air High Setpoint Temperature for Design {C}
  Sensible Load Only No Latent Load,      !- Zone Load Sizing Method
  HumidityRatioDifference,                !- Zone Latent Cooling Design Supply Air Humidity Ratio Input Method
  ,                                       !- Zone Dehumidification Design Supply Air Humidity Ratio {kgWater/kgDryAir}
  0.005,                                  !- Zone Cooling Design Supply Air Humidity Ratio Difference {kgWater/kgDryAir}
  HumidityRatioDifference,                !- Zone Latent Heating Design Supply Air Humidity Ratio Input Method
  ,                                       !- Zone Humidification Design Supply Air Humidity Ratio {kgWater/kgDryAir}
  0.005,                                  !- Zone Humidification Design Supply Air Humidity Ratio Difference {kgWater/kgDryAir}
  ,                                       !- Zone Humidistat Dehumidification Set Point Schedule Name
  ,                                       !- Zone Humidistat Humidification Set Point Schedule Name
  ,                                       !- Design Zone Air Distribution Effectiveness in Cooling Mode
  ,                                       !- Design Zone Air Distribution Effectiveness in Heating Mode
  ,                                       !- Design Zone Secondary Recirculation Fraction {dimensionless}
  ,                                       !- Design Minimum Zone Ventilation Efficiency {dimensionless}
  Coincident;                             !- Sizing Option

OS:ZoneHVAC:EquipmentList,
  {08838166-681c-44cc-a2f4-ae653c402b03}, !- Handle
  Zone HVAC Equipment List 2,             !- Name
  {d6eff6ba-1728-4338-ae93-c15bb0e9c259}; !- Thermal Zone

OS:AdditionalProperties,
  {12ca89c9-ccff-47df-bd18-b3ec4a097ec0}, !- Handle
  {d6eff6ba-1728-4338-ae93-c15bb0e9c259}, !- Object Name
  ObjectType,                             !- Feature Name 1
  String,                                 !- Feature Data Type 1
  attic - vented;                         !- Feature Value 1

OS:Space,
  {3539cf59-47f1-4fb2-8de3-f3a2874d0335}, !- Handle
  attic - vented 1,                       !- Name
  ,                                       !- Space Type Name
  ,                                       !- Default Construction Set Name
  ,                                       !- Default Schedule Set Name
  ,                                       !- Direction of Relative North {deg}
  ,                                       !- X Origin {m}
  ,                                       !- Y Origin {m}
  ,                                       !- Z Origin {m}
  ,                                       !- Building Story Name
  {d6eff6ba-1728-4338-ae93-c15bb0e9c259}, !- Thermal Zone Name
  ,                                       !- Part of Total Floor Area
  ,                                       !- Design Specification Outdoor Air Object Name
  ,                                       !- Building Unit Name
  356.390921899745;                       !- Volume {m3}

OS:Material,
  {9a2c713a-7ce7-4b81-9cb4-ba6166e45706}, !- Handle
  asphalt or fiberglass shingles,         !- Name
  Rough,                                  !- Roughness
  0.00635,                                !- Thickness {m}
  0.162714,                               !- Conductivity {W/m-K}
  1121.4,                                 !- Density {kg/m3}
  1465.45,                                !- Specific Heat {J/kg-K}
  0.9,                                    !- Thermal Absorptance
  0.85,                                   !- Solar Absorptance