
OS:Version,
  {21f6cd24-c4dc-4c3f-a45f-25ded1ee2fad}, !- Handle
  3.9.0;                                  !- Version Identifier

OS:SimulationControl,
  {8bc1c277-d4e8-4df7-bf69-9f83a89d7631}, !- Handle
  ,                                       !- Do Zone Sizing Calculation
  ,                                       !- Do System Sizing Calculation
  ,                                       !- Do Plant Sizing Calculation
  No;                                     !- Run Simulation for Sizing Periods

OS:Timestep,
  {ccf19723-76c0-4132-accb-e4ef04212388}, !- Handle
  1;                                      !- Number of Timesteps per Hour

OS:ShadowCalculation,
  {90b4b6f0-08cb-4e01-a419-7f76b93d507b}, !- Handle
  PolygonClipping,                        !- Shading Calculation Method
  ,                                       !- Shading Calculation Update Frequency Method
  20,                                     !- Shading Calculation Update Frequency
  200,                                    !- Maximum Figures in Shadow Overlap Calculations
  ,                                       !- Polygon Clipping Algorithm
  512,                                    !- Pixel Counting Resolution
  ,                                       !- Sky Diffuse Modeling Algorithm
  No,                                     !- Output External Shading Calculation Results
  No,                                     !- Disable Self-Shading Within Shading Zone Groups
  No;                                     !- Disable Self-Shading From Shading Zone Groups to Other Zones

OS:SurfaceConvectionAlgorithm:Outside,
  {cc2fcfa8-f73a-4331-b97e-79e7df4a11d2}, !- Handle
  DOE-2;                                  !- Algorithm

OS:SurfaceConvectionAlgorithm:Inside,
  {c3d88eff-e25d-4227-bda8-ac4b71e7294e}, !- Handle
  TARP;                                   !- Algorithm

OS:ZoneCapacitanceMultiplier:ResearchSpecial,
  {c4b466e1-7d0d-4d5d-87b0-07833e82ce0d}, !- Handle
  7,                                      !- Temperature Capacity Multiplier
  15,                                     !- Humidity Capacity Multiplier
  ;                                       !- Carbon Dioxide Capacity Multiplier

OS:ConvergenceLimits,
  {2e5f961b-a334-49b3-9f57-bbeeea3c8709}, !- Handle
  0;                                      !- Minimum System Timestep {minutes}

OS:RunPeriod,
  {9377559e-e473-41b0-ab22-55c5db182b15}, !- Handle
  Run Period 1,                           !- Name
  1,                                      !- Begin Month
  1,                                      !- Begin Day of Month
  12,                                     !- End Month
  31,                                     !- End Day of Month
  ,                                       !- Use Weather File Holidays and Special Days
  ,                                       !- Use Weather File Daylight Saving Period
  ,                                       !- Apply Weekend Holiday Rule
  ,                                       !- Use Weather File Rain Indicators
  ,                                       !- Use Weather File Snow Indicators
  ;                                       !- Number of Times Runperiod to be Repeated

OS:PerformancePrecisionTradeoffs,
  {0cdb6ed4-ed26-4cc8-8f51-1f5f63987b63}, !- Handle
  ,                                       !- Use Coil Direct Solutions
  CarrollMRT;                             !- Zone Radiant Exchange Algorithm

OS:WeatherFile,
  {bf3801d1-7eb7-48b3-9112-62247da04cfa}, !- Handle
  Buffalo Niagara Intl Ap,                !- City
  NY,                                     !- State Province Region
  USA,                                    !- Country
  TMY3,                                   !- Data Source
  725280,                                 !- WMO Number
  42.93,                                  !- Latitude {deg}
  -78.73,                                 !- Longitude {deg}
  -5,                                     !- Time Zone {hr}
  215,                                    !- Elevation {m}
  /Users/nmoore/github/urbanopt-example-geojson-project/example_project/weather/USA_NY_Buffalo-Greater.Buffalo.Intl.AP.725280_TMY3.epw, !- Url
  6B50E0FF,                               !- Checksum
  ,                                       !- Start Date Actual Year
  Sunday;                                 !- Start Day of Week

OS:YearDescription,
  {467aa790-c338-4779-94f9-09410ddb6cd4}, !- Handle
  2007,                                   !- Calendar Year
  ,                                       !- Day of Week for Start Day
  ;                                       !- Is Leap Year

OS:Site,
  {7dfc7995-4cef-4ef7-96ae-4f08767baee5}, !- Handle
  Buffalo Niagara Intl Ap_NY,             !- Name
  42.93,                                  !- Latitude {deg}
  -78.73,                                 !- Longitude {deg}
  -5,                                     !- Time Zone {hr}
  215,                                    !- Elevation {m}
  Suburbs,                                !- Terrain
  Yes;                                    !- Keep Site Location Information

OS:RunPeriodControl:DaylightSavingTime,
  {61d8e32b-8faf-46df-bdf6-707f612bc47f}, !- Handle
  Mar 12,                                 !- Start Date
  Nov 5;                                  !- End Date

OS:Site:GroundTemperature:Shallow,
  {6f0a741c-c1a7-4d9a-b753-d9357f8d6cb1}, !- Handle
  4.30207395723828,                       !- January Surface Ground Temperature {C}
  2.29327249652502,                       !- February Surface Ground Temperature {C}
  2.13240047156047,                       !- March Surface Ground Temperature {C}
  3.08567940719286,                       !- April Surface Ground Temperature {C}
  6.91256312497526,                       !- May Surface Ground Temperature {C}
  10.7216195949507,                       !- June Surface Ground Temperature {C}
  14.0238679822574,                       !- July Surface Ground Temperature {C}
  16.1157611184724,                       !- August Surface Ground Temperature {C}
  16.2934789303462,                       !- September Surface Ground Temperature {C}
  14.5920754632847,                       !- October Surface Ground Temperature {C}
  11.374036348653,                        !- November Surface Ground Temperature {C}
  7.68182621661674;                       !- December Surface Ground Temperature {C}

OS:ThermalZone,
  {912b1150-bb30-4e0f-a967-9a6a14c99d7c}, !- Handle
  conditioned space,                      !- Name
  1,                                      !- Multiplier
  ,                                       !- Ceiling Height {m}
  692.06373070848,                        !- Volume {m3}
  ,                                       !- Floor Area {m2}
  ,                                       !- Zone Inside Convection Algorithm
  ,                                       !- Zone Outside Convection Algorithm
  ,                                       !- Zone Conditioning Equipment List Name
  {078f8220-4428-4d00-887c-5f93c2ae229f}, !- Zone Air Inlet Port List
  {a8b234db-2ccc-4838-98c1-e6351d3b7359}, !- Zone Air Exhaust Port List
  {315fd9f1-1895-4e99-8ac6-07d603882418}, !- Zone Air Node Name
  {b1882be0-ee83-49f3-93b5-44a3f2ceabb3}, !- Zone Return Air Port List
  ,                                       !- Primary Daylighting Control Name
  ,                                       !- Fraction of Zone Controlled by Primary Daylighting Control
  ,                                       !- Secondary Daylighting Control Name
  ,                                       !- Fraction of Zone Controlled by Secondary Daylighting Control
  ,                                       !- Illuminance Map Name
  ,                                       !- Group Rendering Name
  {b141e56e-575c-4cba-a08d-5222ae3f348f}, !- Thermostat Name
  No;                                     !- Use Ideal Air Loads

OS:Node,
  {8c032432-15a4-4603-ac96-5408ac94aafd}, !- Handle
  Node 1,                                 !- Name
  {315fd9f1-1895-4e99-8ac6-07d603882418}, !- Inlet Port
  ;                                       !- Outlet Port

OS:Connection,
  {315fd9f1-1895-4e99-8ac6-07d603882418}, !- Handle
  {912b1150-bb30-4e0f-a967-9a6a14c99d7c}, !- Source Object
  11,                                     !- Outlet Port
  {8c032432-15a4-4603-ac96-5408ac94aafd}, !- Target Object
  2;                                      !- Inlet Port

OS:PortList,
  {078f8220-4428-4d00-887c-5f93c2ae229f}, !- Handle
  {912b1150-bb30-4e0f-a967-9a6a14c99d7c}, !- HVAC Component
  {f87196ad-3319-453a-a620-623aec59b6b7}; !- Port 1

OS:PortList,
  {a8b234db-2ccc-4838-98c1-e6351d3b7359}, !- Handle
  {912b1150-bb30-4e0f-a967-9a6a14c99d7c}; !- HVAC Component

OS:PortList,
  {b1882be0-ee83-49f3-93b5-44a3f2ceabb3}, !- Handle
  {912b1150-bb30-4e0f-a967-9a6a14c99d7c}, !- HVAC Component
  {56815d53-b93d-44c3-9d3a-398de4ab2340}; !- Port 1

OS:Sizing:Zone,
  {390677e1-dc0a-482f-b398-6754d3a1ba7d}, !- Handle
  {912b1150-bb30-4e0f-a967-9a6a14c99d7c}, !- Zone or ZoneList Name
  SupplyAirTemperature,                   !- Zone Cooling Design Supply Air Temperature Input Method
  14,                                     !- Zone Cooling Design Supply Air Temperature {C}
  11.11,                                  !- Zone Cooling Design Supply Air Temperature Difference {deltaC}
  SupplyAirTemperature,                   !- Zone Heating Design Supply Air Temperature Input Method
  40,                                     !- Zone Heating Design Supply Air Temperature {C}
  11.11,                                  !- Zone Heating Design Supply Air Temperature Difference {deltaC}
  0.0085,                                 !- Zone Cooling Design Supply Air Humidity Ratio {kg-H2O/kg-air}
  0.008,                                  !- Zone Heating Design Supply Air Humidity Ratio {kg-H2O/kg-air}
  ,                                       !- Zone Heating Sizing Factor
  ,                                       !- Zone Cooling Sizing Factor
  DesignDay,                              !- Cooling Design Air Flow Method
  ,                                       !- Cooling Design Air Flow Rate {m3/s}
  ,                                       !- Cooling Minimum Air Flow per Zone Floor Area {m3/s-m2}
  ,                                       !- Cooling Minimum Air Flow {m3/s}
  ,                                       !- Cooling Minimum Air Flow Fraction
  DesignDay,                              !- Heating Design Air Flow Method
  ,                                       !- Heating Design Air Flow Rate {m3/s}
  ,                                       !- Heating Maximum Air Flow per Zone Floor Area {m3/s-m2}
  ,                                       !- Heating Maximum Air Flow {m3/s}
  ,                                       !- Heating Maximum Air Flow Fraction
  No,                                     !- Account for Dedicated Outdoor Air System
  NeutralSupplyAir,                       !- Dedicated Outdoor Air System Control Strategy
  autosize,                               !- Dedicated Outdoor Air Low Setpoint Temperature for Design {C}
  autosize,                               !- Dedicated Outdoor Air High Setpoint Temperature for Design {C}
  Sensible Load Only No Latent Load,      !- Zone Load Sizing Method
  HumidityRatioDifference,                !- Zone Latent Cooling Design Supply Air Humidity Ratio Input Method
  ,                                       !- Zone Dehumidification Design Supply Air Humidity Ratio {kgWater/kgDryAir}
  0.005,                                  !- Zone Cooling Design Supply Air Humidity Ratio Difference {kgWater/kgDryAir}
  HumidityRatioDifference,                !- Zone Latent Heating Design Supply Air Humidity Ratio Input Method
  ,                                       !- Zone Humidification Design Supply Air Humidity Ratio {kgWater/kgDryAir}
  0.005,                                  !- Zone Humidification Design Supply Air Humidity Ratio Difference {kgWater/kgDryAir}
  ,                                       !- Zone Humidistat Dehumidification Set Point Schedule Name
  ,                                       !- Zone Humidistat Humidification Set Point Schedule Name
  ,                                       !- Design Zone Air Distribution Effectiveness in Cooling Mode
  ,                                       !- Design Zone Air Distribution Effectiveness in Heating Mode
  ,                                       !- Design Zone Secondary Recirculation Fraction {dimensionless}
  ,                                       !- Design Minimum Zone Ventilation Efficiency {dimensionless}
  Coincident;                             !- Sizing Option

OS:ZoneHVAC:EquipmentList,
  {7c1c5cda-6227-43f8-9552-c71d630b0dab}, !- Handle
  Zone HVAC Equipment List 1,             !- Name
  {912b1150-bb30-4e0f-a967-9a6a14c99d7c}, !- Thermal Zone
  ,                                       !- Load Distribution Scheme
  {2128d6cd-bcef-45a7-b830-d4caf5fa40fa}, !- Zone Equipment 1
  1,                                      !- Zone Equipment Cooling Sequence 1
  1,                                      !- Zone Equipment Heating or No-Load Sequence 1
  {ad43f56c-562b-4dfb-8e4d-9958ba1bcd1f}, !- Zone Equipment Sequential Cooling Fraction Schedule Name 1
  {bcf10dba-bc54-443b-b9da-335a276d3c59}; !- Zone Equipment Sequential Heating Fraction Schedule Name 1

OS:AdditionalProperties,
  {e1da70c0-b633-43b6-a0ad-8508febcf98c}, !- Handle
  {912b1150-bb30-4e0f-a967-9a6a14c99d7c}, !- Object Name
  ObjectType,                             !- Feature Name 1
  String,                                 !- Feature Data Type 1
  conditioned space;                      !- Feature Value 1

OS:Space,
  {02fc4c3a-abfc-48c3-bbb4-1585ba115cac}, !- Handle
  conditioned space 1,                    !- Name
  ,                                       !- Space Type Name
  ,                                       !- Default Construction Set Name
  ,                                       !- Default Schedule Set Name
  ,                                       !- Direction of Relative North {deg}
  ,                                       !- X Origin {m}
  ,                                       !- Y Origin {m}
  ,                                       !- Z Origin {m}
  ,                                       !- Building Story Name
  {912b1150-bb30-4e0f-a967-9a6a14c99d7c}, !- Thermal Zone Name
  ,                                       !- Part of Total Floor Area
  ,                                       !- Design Specification Outdoor Air Object Name
  ,                                       !- Building Unit Name
  692.06373070848;                        !- Volume {m3}

OS:Schedule:Ruleset,
  {73489ef1-9a9b-4939-be72-1b58ceb9a4b2}, !- Handle
  heating setpoint,                       !- Name
  {4f3c7a95-85f4-4a19-97bd-f51f82919f7d}, !- Schedule Type Limits Name
  {a28082fc-45cf-493b-966c-a442452d4c96}; !- Default Day Schedule Name

OS:Schedule:Day,
  {a28082fc-45cf-493b-966c-a442452d4c96}, !- Handle
  heating setpoint default day,           !- Name
  {4f3c7a95-85f4-4a19-97bd-f51f82919f7d}, !- Schedule Type Limits Name
  ,                                       !- Interpolate to Timestep
  24,                                     !- Hour 1
  0,                                      !- Minute 1
  0;                                      !- Value Until Time 1

OS:Schedule:Rule,
  {bffa6360-ece5-42f5-9a0d-2652bd51fd7a}, !- Handle
  heating setpoint allday rule,           !- Name
  {73489ef1-9a9b-4939-be72-1b58ceb9a4b2}, !- Schedule Ruleset Name
  0,                                      !- Rule Order
  {be6760cc-d71e-47f9-9f08-c6f64740f3c8}, !- Day Schedule Name
  Yes,                                    !- Apply Sunday
  Yes,                                    !- Apply Monday
  Yes,                                    !- Apply Tuesday
  Yes,                                    !- Apply Wednesday
  Yes,                                    !- Apply Thursday
  Yes,                                    !- Apply Friday
  Yes,                                    !- Apply Saturday
  DateRange,                              !- Date Specification Type
  1,                                      !- Start Month
  1,                                      !- Start Day
  12,                                     !- End Month
  31;                                     !- End Day

OS:Schedule:Day,
  {be6760cc-d71e-47f9-9f08-c6f64740f3c8}, !- Handle
  heating setpoint day,                   !- Name
  {4f3c7a95-85f4-4a19-97bd-f51f82919f7d}, !- Schedule Type Limits Name
  ,                                       !- Interpolate to Timestep
  24,                                     !- Hour 1
  0,                                      !- Minute 1
  20;                                     !- Value Until Time 1

OS:Schedule:Ruleset,
  {587fe9b5-c45f-48ed-b9e8-09a17dc9e908}, !- Handle
  cooling setpoint,                       !- Name
  {4f3c7a95-85f4-4a19-97bd-f51f82919f7d}, !- Schedule Type Limits Name
  {bee401b9-4894-4a9b-9dc5-9a1bba8c8afd}; !- Default Day Schedule Name

OS:Schedule:Day,
  {bee401b9-4894-4a9b-9dc5-9a1bba8c8afd}, !- Handle
  cooling setpoint default day,           !- Name
  {4f3c7a95-85f4-4a19-97bd-f51f82919f7d}, !- Schedule Type Limits Name
  ,                                       !- Interpolate to Timestep
  24,                                     !- Hour 1
  0,                                      !- Minute 1
  0;                                      !- Value Until Time 1

OS:Schedule:Rule,
  {7a396c69-ac1b-4c21-ac6b-ba409a14ec38}, !- Handle
  cooling setpoint allday rule,           !- Name
  {587fe9b5-c45f-48ed-b9e8-09a17dc9e908}, !- Schedule Ruleset Name
  0,                                      !- Rule Order
  {add7ebc1-d246-4a7f-8643-cace675f7a6c}, !- Day Schedule Name
  Yes,                                    !- Apply Sunday
  Yes,                                    !- Apply Monday
  Yes,                                    !- Apply Tuesday
  Yes,                                    !- Apply Wednesday
  Yes,                                    !- Apply Thursday
  Yes,                                    !- Apply Friday
  Yes,                                    !- Apply Saturday
  DateRange,                              !- Date Specification Type
  1,                                      !- Start Month
  1,                                      !- Start Day
  12,                                     !- End Month
  31;                                     !- End Day

OS:Schedule:Day,
  {add7ebc1-d246-4a7f-8643-cace675f7a6c}, !- Handle
  cooling setpoint day,                   !- Name
  {4f3c7a95-85f4-4a19-97bd-f51f82919f7d}, !- Schedule Type Limits Name
  ,                                       !- Interpolate to Timestep
  24,                                     !- Hour 1
  0,                                      !- Minute 1
  25.5555555555556;                       !- Value Until Time 1

OS:ThermostatSetpoint:DualSetpoint,
  {b141e56e-575c-4cba-a08d-5222ae3f348f}, !- Handle
  conditioned space temperature setpoint, !- Name
  {73489ef1-9a9b-4939-be72-1b58ceb9a4b2}, !- Heating Setpoint Temperature Schedule Name
  {587fe9b5-c45f-48ed-b9e8-09a17dc9e908}, !- Cooling Setpoint Temperature Schedule Name
  0;                                      !- Temperature Difference Between Cutout And Setpoint {deltaC}

OS:ScheduleTypeLimits,
  {4f3c7a95-85f4-4a19-97bd-f51f82919f7d}, !- Handle
  Temperature,                            !- Name
  ,                                       !- Lower Limit Value
  ,                                       !- Upper Limit Value
  Continuous,                             !- Numeric Type
  Temperature;                            !- Unit Type

OS:Surface,
  {51bb467d-9036-4023-a05e-c43df1e7aa35}, !- Handle
  Roof1,                                  !- Name
  RoofCeiling,                            !- Surface Type
  {85429918-f78c-408b-a0b2-bb647d638514}, !- Construction Name
  {22a43af3-8318-4566-99bb-e5c2a58e16b2}, !- Space Name
  Outdoors,                               !- Outside Boundary Condition
  ,                                       !- Outside Boundary Condition Object
  SunExposed,                             !- Sun Exposure
  WindExposed,                            !- Wind Exposure
  ,                                       !- View Factor to Ground
  ,                                       !- Number of Vertices
  -26.9347048849634, 58.0557891618865, 2.4384, !- X,Y,Z Vertex 1 {m}
  -26.9347048849634, 46.7895631136661, 8.0715130241102, !- X,Y,Z Vertex 2 {m}
  -14.3386812381136, 46.7895631136661, 8.0715130241102, !- X,Y,Z Vertex 3 {m}
  -14.3386812381136, 58.0557891618865, 2.4384; !- X,Y,Z Vertex 4 {m}

OS:AdditionalProperties,
  {b64acd78-c68d-41fb-8417-3954f26a53d0}, !- Handle
  {51bb467d-9036-4023-a05e-c43df1e7aa35}, !- Object Name
  Length,                                 !- Feature Name 1
  Double,                                 !- Feature Data Type 1
  41.325536899113608,                     !- Feature Value 1
  Width,                                  !- Feature Name 2
  Double,                                 !- Feature Data Type 2
  41.325536899113601,                     !- Feature Value 2
  Azimuth,                                !- Feature Name 3
  Integer,                                !- Feature Data Type 3
  0,                                      !- Feature Value 3
  Tilt,                                   !- Feature Name 4
  Double,                                 !- Feature Data Type 4
  0.5,                                    !- Feature Value 4
  SurfaceType,                            !- Feature Name 5
  String,                                 !- Feature Data Type 5
  Roof;                                   !- Feature Value 5

OS:ThermalZone,
  {98d94348-dd8f-4ea5-977c-7f1c73cec53b}, !- Handle
  attic - vented,                         !- Name
  1,                                      !- Multiplier
  ,                                       !- Ceiling Height {m}
  356.389957095237,                       !- Volume {m3}
  ,                                       !- Floor Area {m2}
  ,                                       !- Zone Inside Convection Algorithm
  ,                                       !- Zone Outside Convection Algorithm
  ,                                       !- Zone Conditioning Equipment List Name
  {da0fabc4-1ae1-4177-9ea2-d95fa9ab795b}, !- Zone Air Inlet Port List
  {6e65612e-33e5-4d96-9adb-09c04bb23385}, !- Zone Air Exhaust Port List
  {cd871bc8-9e7b-4696-befd-9fb6666bc3ff}, !- Zone Air Node Name
  {811fa899-22a1-417f-a24c-f6c2395a0b6b}, !- Zone Return Air Port List
  ,                                       !- Primary Daylighting Control Name
  ,                                       !- Fraction of Zone Controlled by Primary Daylighting Control
  ,                                       !- Secondary Daylighting Control Name
  ,                                       !- Fraction of Zone Controlled by Secondary Daylighting Control
  ,                                       !- Illuminance Map Name
  ,                                       !- Group Rendering Name
  ,                                       !- Thermostat Name
  No;                                     !- Use Ideal Air Loads

OS:Node,
  {4f1ec9ff-4f30-4d1d-84e1-42de29eb45c9}, !- Handle
  Node 2,                                 !- Name
  {cd871bc8-9e7b-4696-befd-9fb6666bc3ff}, !- Inlet Port
  ;                                       !- Outlet Port

OS:Connection,
  {cd871bc8-9e7b-4696-befd-9fb6666bc3ff}, !- Handle
  {98d94348-dd8f-4ea5-977c-7f1c73cec53b}, !- Source Object
  11,                                     !- Outlet Port
  {4f1ec9ff-4f30-4d1d-84e1-42de29eb45c9}, !- Target Object
  2;                                      !- Inlet Port

OS:PortList,
  {da0fabc4-1ae1-4177-9ea2-d95fa9ab795b}, !- Handle
  {98d94348-dd8f-4ea5-977c-7f1c73cec53b}; !- HVAC Component

OS:PortList,
  {6e65612e-33e5-4d96-9adb-09c04bb23385}, !- Handle
  {98d94348-dd8f-4ea5-977c-7f1c73cec53b}; !- HVAC Component

OS:PortList,
  {811fa899-22a1-417f-a24c-f6c2395a0b6b}, !- Handle
  {98d94348-dd8f-4ea5-977c-7f1c73cec53b}; !- HVAC Component

OS:Sizing:Zone,
  {448af79b-07aa-4294-ae6c-6be3ecb79b6d}, !- Handle
  {98d94348-dd8f-4ea5-977c-7f1c73cec53b}, !- Zone or ZoneList Name
  SupplyAirTemperature,                   !- Zone Cooling Design Supply Air Temperature Input Method
  14,                                     !- Zone Cooling Design Supply Air Temperature {C}
  11.11,                                  !- Zone Cooling Design Supply Air Temperature Difference {deltaC}
  SupplyAirTemperature,                   !- Zone Heating Design Supply Air Temperature Input Method
  40,                                     !- Zone Heating Design Supply Air Temperature {C}
  11.11,                                  !- Zone Heating Design Supply Air Temperature Difference {deltaC}
  0.0085,                                 !- Zone Cooling Design Supply Air Humidity Ratio {kg-H2O/kg-air}
  0.008,                                  !- Zone Heating Design Supply Air Humidity Ratio {kg-H2O/kg-air}
  ,                                       !- Zone Heating Sizing Factor
  ,                                       !- Zone Cooling Sizing Factor
  DesignDay,                              !- Cooling Design Air Flow Method
  ,                                       !- Cooling Design Air Flow Rate {m3/s}
  ,                                       !- Cooling Minimum Air Flow per Zone Floor Area {m3/s-m2}
  ,                                       !- Cooling Minimum Air Flow {m3/s}
  ,                                       !- Cooling Minimum Air Flow Fraction
  DesignDay,                              !- Heating Design Air Flow Method
  ,                                       !- Heating Design Air Flow Rate {m3/s}
  ,                                       !- Heating Maximum Air Flow per Zone Floor Area {m3/s-m2}
  ,                                       !- Heating Maximum Air Flow {m3/s}
  ,                                       !- Heating Maximum Air Flow Fraction
  No,                                     !- Account for Dedicated Outdoor Air System
  NeutralSupplyAir,                       !- Dedicated Outdoor Air System Control Strategy
  autosize,                               !- Dedicated Outdoor Air Low Setpoint Temperature for Design {C}
  autosize,                               !- Dedicated Outdoor Air High Setpoint Temperature for Design {C}
  Sensible Load Only No Latent Load,      !- Zone Load Sizing Method
  HumidityRatioDifference,                !- Zone Latent Cooling Design Supply Air Humidity Ratio Input Method
  ,                                       !- Zone Dehumidification Design Supply Air Humidity Ratio {kgWater/kgDryAir}
  0.005,                                  !- Zone Cooling Design Supply Air Humidity Ratio Difference {kgWater/kgDryAir}
  HumidityRatioDifference,                !- Zone Latent Heating Design Supply Air Humidity Ratio Input Method
  ,                                       !- Zone Humidification Design Supply Air Humidity Ratio {kgWater/kgDryAir}
  0.005,                                  !- Zone Humidification Design Supply Air Humidity Ratio Difference {kgWater/kgDryAir}
  ,                                       !- Zone Humidistat Dehumidification Set Point Schedule Name
  ,                                       !- Zone Humidistat Humidification Set Point Schedule Name
  ,                                       !- Design Zone Air Distribution Effectiveness in Cooling Mode
  ,                                       !- Design Zone Air Distribution Effectiveness in Heating Mode
  ,                                       !- Design Zone Secondary Recirculation Fraction {dimensionless}
  ,                                       !- Design Minimum Zone Ventilation Efficiency {dimensionless}
  Coincident;                             !- Sizing Option

OS:ZoneHVAC:EquipmentList,
  {743bf3bc-e3ba-44ea-8ac6-5a6198a95503}, !- Handle
  Zone HVAC Equipment List 2,             !- Name
  {98d94348-dd8f-4ea5-977c-7f1c73cec53b}; !- Thermal Zone

OS:AdditionalProperties,
  {7ff0be78-ed2c-4d20-ab75-f3d82b7fb359}, !- Handle
  {98d94348-dd8f-4ea5-977c-7f1c73cec53b}, !- Object Name
  ObjectType,                             !- Feature Name 1
  String,                                 !- Feature Data Type 1
  attic - vented;                         !- Feature Value 1

OS:Space,
  {22a43af3-8318-4566-99bb-e5c2a58e16b2}, !- Handle
  attic - vented 1,                       !- Name
  ,                                       !- Space Type Name
  ,                                       !- Default Construction Set Name
  ,                                       !- Default Schedule Set Name
  ,                                       !- Direction of Relative North {deg}
  ,                                       !- X Origin {m}
  ,                                       !- Y Origin {m}
  ,                                       !- Z Origin {m}
  ,                                       !- Building Story Name
  {98d94348-dd8f-4ea5-977c-7f1c73cec53b}, !- Thermal Zone Name
  ,                                       !- Part of Total Floor Area
  ,                                       !- Design Specification Outdoor Air Object Name
  ,                                       !- Building Unit Name
  356.389957095237;                       !- Volume {m3}

OS:Material,
  {5456d89b-8ec7-4de2-9706-3ca1a05d64ca}, !- Handle
  asphalt or fiberglass shingles,         !- Name
  Rough,                                  !- Roughness
  0.00635,                                !- Thickness {m}
  0.162714,                               !- Conductivity {W/m-K}
  1121.4,                                 !- Density {kg/m3}
  1465.45,                                !- Specific Heat {J/kg-K}
  0.9,                                    !- Thermal Absorptance
  0.85,                                   !- Solar Absorptance