
OS:Version,
  {925a823c-3c78-4869-8b98-853ecf199a68}, !- Handle
  3.10.0;                                 !- Version Identifier

OS:SimulationControl,
  {9192f8bd-d5f8-4fd6-80bf-fbe72167bb34}, !- Handle
  ,                                       !- Do Zone Sizing Calculation
  ,                                       !- Do System Sizing Calculation
  ,                                       !- Do Plant Sizing Calculation
  No;                                     !- Run Simulation for Sizing Periods

OS:Timestep,
  {65a5561e-e43d-4af3-b8fe-64779c00c65a}, !- Handle
  1;                                      !- Number of Timesteps per Hour

OS:ShadowCalculation,
  {72cc35f6-4ff7-4445-9134-d88b044d60dd}, !- Handle
  PolygonClipping,                        !- Shading Calculation Method
  ,                                       !- Shading Calculation Update Frequency Method
  20,                                     !- Shading Calculation Update Frequency
  200,                                    !- Maximum Figures in Shadow Overlap Calculations
  ,                                       !- Polygon Clipping Algorithm
  512,                                    !- Pixel Counting Resolution
  ,                                       !- Sky Diffuse Modeling Algorithm
  No,                                     !- Output External Shading Calculation Results
  No,                                     !- Disable Self-Shading Within Shading Zone Groups
  No;                                     !- Disable Self-Shading From Shading Zone Groups to Other Zones

OS:SurfaceConvectionAlgorithm:Outside,
  {ec40f338-3ee2-40ff-954e-fe94d2369acf}, !- Handle
  DOE-2;                                  !- Algorithm

OS:SurfaceConvectionAlgorithm:Inside,
  {c0739f8e-026f-4377-af22-9230e46fc905}, !- Handle
  TARP;                                   !- Algorithm

OS:ZoneCapacitanceMultiplier:ResearchSpecial,
  {0da5ca79-86c5-473b-9e6b-227da7755c28}, !- Handle
  7,                                      !- Temperature Capacity Multiplier
  15,                                     !- Humidity Capacity Multiplier
  ;                                       !- Carbon Dioxide Capacity Multiplier

OS:ConvergenceLimits,
  {ab3b4a14-00dd-4972-838e-1c29bd8c74bd}, !- Handle
  0;                                      !- Minimum System Timestep {minutes}

OS:RunPeriod,
  {fffafe71-a315-4b4b-9bae-033dd905c66a}, !- Handle
  Run Period 1,                           !- Name
  1,                                      !- Begin Month
  1,                                      !- Begin Day of Month
  12,                                     !- End Month
  31,                                     !- End Day of Month
  ,                                       !- Use Weather File Holidays and Special Days
  ,                                       !- Use Weather File Daylight Saving Period
  ,                                       !- Apply Weekend Holiday Rule
  ,                                       !- Use Weather File Rain Indicators
  ,                                       !- Use Weather File Snow Indicators
  ;                                       !- Number of Times Runperiod to be Repeated

OS:PerformancePrecisionTradeoffs,
  {404423b6-976f-452a-9e8c-0e5c11235613}, !- Handle
  ,                                       !- Use Coil Direct Solutions
  CarrollMRT;                             !- Zone Radiant Exchange Algorithm

OS:WeatherFile,
  {38301631-bdec-4b25-a48b-ab90900c6927}, !- Handle
  Buffalo Niagara Intl Ap,                !- City
  NY,                                     !- State Province Region
  USA,                                    !- Country
  TMY3,                                   !- Data Source
  725280,                                 !- WMO Number
  42.93,                                  !- Latitude {deg}
  -78.73,                                 !- Longitude {deg}
  -5,                                     !- Time Zone {hr}
  215,                                    !- Elevation {m}
  /Users/nmoore/github/urbanopt-example-geojson-project/example_project/weather/USA_NY_Buffalo-Greater.Buffalo.Intl.AP.725280_TMY3.epw, !- Url
  6B50E0FF,                               !- Checksum
  ,                                       !- Start Date Actual Year
  Sunday;                                 !- Start Day of Week

OS:YearDescription,
  {db3b30c7-ef47-45d5-963c-c90802ef887b}, !- Handle
  2007,                                   !- Calendar Year
  ,                                       !- Day of Week for Start Day
  ;                                       !- Is Leap Year

OS:Site,
  {1ab2f777-4e01-4e85-8f45-d76088f21d7b}, !- Handle
  Buffalo Niagara Intl Ap_NY,             !- Name
  42.93,                                  !- Latitude {deg}
  -78.73,                                 !- Longitude {deg}
  -5,                                     !- Time Zone {hr}
  215,                                    !- Elevation {m}
  Suburbs,                                !- Terrain
  Yes;                                    !- Keep Site Location Information

OS:RunPeriodControl:DaylightSavingTime,
  {cced5e47-d939-49ea-a56c-7960db05a82f}, !- Handle
  Mar 12,                                 !- Start Date
  Nov 5;                                  !- End Date

OS:Site:GroundTemperature:Shallow,
  {23bf9c35-d1ad-435a-9ae8-5ccdaf7b20ad}, !- Handle
  4.30207395723828,                       !- January Surface Ground Temperature {C}
  2.29327249652502,                       !- February Surface Ground Temperature {C}
  2.13240047156047,                       !- March Surface Ground Temperature {C}
  3.08567940719286,                       !- April Surface Ground Temperature {C}
  6.91256312497526,                       !- May Surface Ground Temperature {C}
  10.7216195949507,                       !- June Surface Ground Temperature {C}
  14.0238679822574,                       !- July Surface Ground Temperature {C}
  16.1157611184724,                       !- August Surface Ground Temperature {C}
  16.2934789303462,                       !- September Surface Ground Temperature {C}
  14.5920754632847,                       !- October Surface Ground Temperature {C}
  11.374036348653,                        !- November Surface Ground Temperature {C}
  7.68182621661674;                       !- December Surface Ground Temperature {C}

OS:ThermalZone,
  {471287f5-dd42-4e30-bf2e-d822305c410f}, !- Handle
  conditioned space,                      !- Name
  1,                                      !- Multiplier
  ,                                       !- Ceiling Height {m}
  692.06373070848,                        !- Volume {m3}
  ,                                       !- Floor Area {m2}
  ,                                       !- Zone Inside Convection Algorithm
  ,                                       !- Zone Outside Convection Algorithm
  ,                                       !- Zone Conditioning Equipment List Name
  {6cfff18d-b1a4-47af-99cd-4fa185a45327}, !- Zone Air Inlet Port List
  {52f4bed5-aea0-4082-8253-2ae43c27e0a6}, !- Zone Air Exhaust Port List
  {edfb9621-bb96-4c31-9b1d-a256ed09ef60}, !- Zone Air Node Name
  {08aa81ce-04af-4907-a84e-baa4da07c2d3}, !- Zone Return Air Port List
  ,                                       !- Primary Daylighting Control Name
  ,                                       !- Fraction of Zone Controlled by Primary Daylighting Control
  ,                                       !- Secondary Daylighting Control Name
  ,                                       !- Fraction of Zone Controlled by Secondary Daylighting Control
  ,                                       !- Illuminance Map Name
  ,                                       !- Group Rendering Name
  {ef29d448-4d6d-48a7-bd6b-aaa272ad52f5}, !- Thermostat Name
  No;                                     !- Use Ideal Air Loads

OS:Node,
  {ad1ec7f4-1a96-42ce-922d-59e1230f56d0}, !- Handle
  Node 1,                                 !- Name
  {edfb9621-bb96-4c31-9b1d-a256ed09ef60}, !- Inlet Port
  ;                                       !- Outlet Port

OS:Connection,
  {edfb9621-bb96-4c31-9b1d-a256ed09ef60}, !- Handle
  {471287f5-dd42-4e30-bf2e-d822305c410f}, !- Source Object
  11,                                     !- Outlet Port
  {ad1ec7f4-1a96-42ce-922d-59e1230f56d0}, !- Target Object
  2;                                      !- Inlet Port

OS:PortList,
  {6cfff18d-b1a4-47af-99cd-4fa185a45327}, !- Handle
  {471287f5-dd42-4e30-bf2e-d822305c410f}, !- HVAC Component
  {871d288e-bb9e-45b2-8061-60736100f7dc}; !- Port 1

OS:PortList,
  {52f4bed5-aea0-4082-8253-2ae43c27e0a6}, !- Handle
  {471287f5-dd42-4e30-bf2e-d822305c410f}; !- HVAC Component

OS:PortList,
  {08aa81ce-04af-4907-a84e-baa4da07c2d3}, !- Handle
  {471287f5-dd42-4e30-bf2e-d822305c410f}, !- HVAC Component
  {0d0351ad-87e6-47fa-bba4-14bcc06331d1}; !- Port 1

OS:Sizing:Zone,
  {a7707ac8-804d-4569-8437-2de6d0728487}, !- Handle
  {471287f5-dd42-4e30-bf2e-d822305c410f}, !- Zone or ZoneList Name
  SupplyAirTemperature,                   !- Zone Cooling Design Supply Air Temperature Input Method
  14,                                     !- Zone Cooling Design Supply Air Temperature {C}
  11.11,                                  !- Zone Cooling Design Supply Air Temperature Difference {deltaC}
  SupplyAirTemperature,                   !- Zone Heating Design Supply Air Temperature Input Method
  40,                                     !- Zone Heating Design Supply Air Temperature {C}
  11.11,                                  !- Zone Heating Design Supply Air Temperature Difference {deltaC}
  0.0085,                                 !- Zone Cooling Design Supply Air Humidity Ratio {kg-H2O/kg-air}
  0.008,                                  !- Zone Heating Design Supply Air Humidity Ratio {kg-H2O/kg-air}
  ,                                       !- Zone Heating Sizing Factor
  ,                                       !- Zone Cooling Sizing Factor
  DesignDay,                              !- Cooling Design Air Flow Method
  ,                                       !- Cooling Design Air Flow Rate {m3/s}
  ,                                       !- Cooling Minimum Air Flow per Zone Floor Area {m3/s-m2}
  ,                                       !- Cooling Minimum Air Flow {m3/s}
  ,                                       !- Cooling Minimum Air Flow Fraction
  DesignDay,                              !- Heating Design Air Flow Method
  ,                                       !- Heating Design Air Flow Rate {m3/s}
  ,                                       !- Heating Maximum Air Flow per Zone Floor Area {m3/s-m2}
  ,                                       !- Heating Maximum Air Flow {m3/s}
  ,                                       !- Heating Maximum Air Flow Fraction
  No,                                     !- Account for Dedicated Outdoor Air System
  NeutralSupplyAir,                       !- Dedicated Outdoor Air System Control Strategy
  autosize,                               !- Dedicated Outdoor Air Low Setpoint Temperature for Design {C}
  autosize,                               !- Dedicated Outdoor Air High Setpoint Temperature for Design {C}
  Sensible Load Only No Latent Load,      !- Zone Load Sizing Method
  HumidityRatioDifference,                !- Zone Latent Cooling Design Supply Air Humidity Ratio Input Method
  ,                                       !- Zone Dehumidification Design Supply Air Humidity Ratio {kgWater/kgDryAir}
  0.005,                                  !- Zone Cooling Design Supply Air Humidity Ratio Difference {kgWater/kgDryAir}
  HumidityRatioDifference,                !- Zone Latent Heating Design Supply Air Humidity Ratio Input Method
  ,                                       !- Zone Humidification Design Supply Air Humidity Ratio {kgWater/kgDryAir}
  0.005,                                  !- Zone Humidification Design Supply Air Humidity Ratio Difference {kgWater/kgDryAir}
  ,                                       !- Zone Humidistat Dehumidification Set Point Schedule Name
  ,                                       !- Zone Humidistat Humidification Set Point Schedule Name
  ,                                       !- Design Zone Air Distribution Effectiveness in Cooling Mode
  ,                                       !- Design Zone Air Distribution Effectiveness in Heating Mode
  ,                                       !- Design Zone Secondary Recirculation Fraction {dimensionless}
  ,                                       !- Design Minimum Zone Ventilation Efficiency {dimensionless}
  Coincident;                             !- Sizing Option

OS:ZoneHVAC:EquipmentList,
  {a0fa52a3-244e-49b5-81c3-ed0e90bcd07a}, !- Handle
  Zone HVAC Equipment List 1,             !- Name
  {471287f5-dd42-4e30-bf2e-d822305c410f}, !- Thermal Zone
  ,                                       !- Load Distribution Scheme
  {102ec764-99d0-430a-86e8-c182800d5f06}, !- Zone Equipment 1
  1,                                      !- Zone Equipment Cooling Sequence 1
  1,                                      !- Zone Equipment Heating or No-Load Sequence 1
  {70a04c98-6072-4d7f-9f03-1daed862331f}, !- Zone Equipment Sequential Cooling Fraction Schedule Name 1
  {ee2fbe82-50b8-477a-ad6b-d5d9d6acdb40}; !- Zone Equipment Sequential Heating Fraction Schedule Name 1

OS:AdditionalProperties,
  {ca249d4b-a9be-495e-8d15-3c79e52c8f6b}, !- Handle
  {471287f5-dd42-4e30-bf2e-d822305c410f}, !- Object Name
  ObjectType,                             !- Feature Name 1
  String,                                 !- Feature Data Type 1
  conditioned space;                      !- Feature Value 1

OS:Space,
  {59d18db0-9a46-48fc-968b-5fc32727f303}, !- Handle
  conditioned space 1,                    !- Name
  ,                                       !- Space Type Name
  ,                                       !- Default Construction Set Name
  ,                                       !- Default Schedule Set Name
  ,                                       !- Direction of Relative North {deg}
  ,                                       !- X Origin {m}
  ,                                       !- Y Origin {m}
  ,                                       !- Z Origin {m}
  ,                                       !- Building Story Name
  {471287f5-dd42-4e30-bf2e-d822305c410f}, !- Thermal Zone Name
  ,                                       !- Part of Total Floor Area
  ,                                       !- Design Specification Outdoor Air Object Name
  ,                                       !- Building Unit Name
  692.06373070848;                        !- Volume {m3}

OS:Schedule:Ruleset,
  {bce5ca4e-1e27-4585-86b6-d4f370fe3c41}, !- Handle
  heating setpoint,                       !- Name
  {a5c847b7-76e6-4939-bf88-19d065aec7b4}, !- Schedule Type Limits Name
  {9dfe0bac-9b4e-4bab-9284-9add23fd8438}; !- Default Day Schedule Name

OS:Schedule:Day,
  {9dfe0bac-9b4e-4bab-9284-9add23fd8438}, !- Handle
  heating setpoint default day,           !- Name
  {a5c847b7-76e6-4939-bf88-19d065aec7b4}, !- Schedule Type Limits Name
  ,                                       !- Interpolate to Timestep
  24,                                     !- Hour 1
  0,                                      !- Minute 1
  0;                                      !- Value Until Time 1

OS:Schedule:Rule,
  {4b20a5b7-c969-4b5b-8f56-66bcaa843c98}, !- Handle
  heating setpoint allday rule,           !- Name
  {bce5ca4e-1e27-4585-86b6-d4f370fe3c41}, !- Schedule Ruleset Name
  0,                                      !- Rule Order
  {65f6c22c-4821-4ad5-9cf1-75f01c815d18}, !- Day Schedule Name
  Yes,                                    !- Apply Sunday
  Yes,                                    !- Apply Monday
  Yes,                                    !- Apply Tuesday
  Yes,                                    !- Apply Wednesday
  Yes,                                    !- Apply Thursday
  Yes,                                    !- Apply Friday
  Yes,                                    !- Apply Saturday
  DateRange,                              !- Date Specification Type
  1,                                      !- Start Month
  1,                                      !- Start Day
  12,                                     !- End Month
  31;                                     !- End Day

OS:Schedule:Day,
  {65f6c22c-4821-4ad5-9cf1-75f01c815d18}, !- Handle
  heating setpoint day,                   !- Name
  {a5c847b7-76e6-4939-bf88-19d065aec7b4}, !- Schedule Type Limits Name
  ,                                       !- Interpolate to Timestep
  24,                                     !- Hour 1
  0,                                      !- Minute 1
  20;                                     !- Value Until Time 1

OS:Schedule:Ruleset,
  {e2722563-d3c7-4e8a-8052-b3963b963061}, !- Handle
  cooling setpoint,                       !- Name
  {a5c847b7-76e6-4939-bf88-19d065aec7b4}, !- Schedule Type Limits Name
  {c5d788d7-54ba-48c3-890c-2ecad3ce43d9}; !- Default Day Schedule Name

OS:Schedule:Day,
  {c5d788d7-54ba-48c3-890c-2ecad3ce43d9}, !- Handle
  cooling setpoint default day,           !- Name
  {a5c847b7-76e6-4939-bf88-19d065aec7b4}, !- Schedule Type Limits Name
  ,                                       !- Interpolate to Timestep
  24,                                     !- Hour 1
  0,                                      !- Minute 1
  0;                                      !- Value Until Time 1

OS:Schedule:Rule,
  {40ab61c3-66ad-44ad-b6fc-5d82edc13071}, !- Handle
  cooling setpoint allday rule,           !- Name
  {e2722563-d3c7-4e8a-8052-b3963b963061}, !- Schedule Ruleset Name
  0,                                      !- Rule Order
  {47b23b8f-2dd1-4d89-9fab-7e6497591a4b}, !- Day Schedule Name
  Yes,                                    !- Apply Sunday
  Yes,                                    !- Apply Monday
  Yes,                                    !- Apply Tuesday
  Yes,                                    !- Apply Wednesday
  Yes,                                    !- Apply Thursday
  Yes,                                    !- Apply Friday
  Yes,                                    !- Apply Saturday
  DateRange,                              !- Date Specification Type
  1,                                      !- Start Month
  1,                                      !- Start Day
  12,                                     !- End Month
  31;                                     !- End Day

OS:Schedule:Day,
  {47b23b8f-2dd1-4d89-9fab-7e6497591a4b}, !- Handle
  cooling setpoint day,                   !- Name
  {a5c847b7-76e6-4939-bf88-19d065aec7b4}, !- Schedule Type Limits Name
  ,                                       !- Interpolate to Timestep
  24,                                     !- Hour 1
  0,                                      !- Minute 1
  25.5555555555556;                       !- Value Until Time 1

OS:ThermostatSetpoint:DualSetpoint,
  {ef29d448-4d6d-48a7-bd6b-aaa272ad52f5}, !- Handle
  conditioned space temperature setpoint, !- Name
  {bce5ca4e-1e27-4585-86b6-d4f370fe3c41}, !- Heating Setpoint Temperature Schedule Name
  {e2722563-d3c7-4e8a-8052-b3963b963061}, !- Cooling Setpoint Temperature Schedule Name
  0;                                      !- Temperature Difference Between Cutout And Setpoint {deltaC}

OS:ScheduleTypeLimits,
  {a5c847b7-76e6-4939-bf88-19d065aec7b4}, !- Handle
  Temperature,                            !- Name
  ,                                       !- Lower Limit Value
  ,                                       !- Upper Limit Value
  Continuous,                             !- Numeric Type
  Temperature;                            !- Unit Type

OS:Surface,
  {c3a5dfdf-4cba-48f7-b003-6a724eb82809}, !- Handle
  Roof1,                                  !- Name
  RoofCeiling,                            !- Surface Type
  {f2eaddcd-2fc0-49b8-ad82-53dd936d799f}, !- Construction Name
  {4ddb5f16-baa4-45bb-86dc-e976baa2693b}, !- Space Name
  Outdoors,                               !- Outside Boundary Condition
  ,                                       !- Outside Boundary Condition Object
  SunExposed,                             !- Sun Exposure
  WindExposed,                            !- Wind Exposure
  ,                                       !- View Factor to Ground
  ,                                       !- Number of Vertices
  -26.9347048849634, 58.0557891618865, 2.4384, !- X,Y,Z Vertex 1 {m}
  -26.9347048849634, 46.7895631136661, 8.0715130241102, !- X,Y,Z Vertex 2 {m}
  -14.3386812381136, 46.7895631136661, 8.0715130241102, !- X,Y,Z Vertex 3 {m}
  -14.3386812381136, 58.0557891618865, 2.4384; !- X,Y,Z Vertex 4 {m}

OS:AdditionalProperties,
  {c664d3dd-af6b-4d5b-99cd-6ba23636f6a1}, !- Handle
  {c3a5dfdf-4cba-48f7-b003-6a724eb82809}, !- Object Name
  Length,                                 !- Feature Name 1
  Double,                                 !- Feature Data Type 1
  41.325536899113608,                     !- Feature Value 1
  Width,                                  !- Feature Name 2
  Double,                                 !- Feature Data Type 2
  41.325536899113601,                     !- Feature Value 2
  Azimuth,                                !- Feature Name 3
  Integer,                                !- Feature Data Type 3
  0,                                      !- Feature Value 3
  Tilt,                                   !- Feature Name 4
  Double,                                 !- Feature Data Type 4
  0.5,                                    !- Feature Value 4
  SurfaceType,                            !- Feature Name 5
  String,                                 !- Feature Data Type 5
  Roof;                                   !- Feature Value 5

OS:ThermalZone,
  {0bba4bf7-ff1f-45df-97a3-9156caa35387}, !- Handle
  attic - vented,                         !- Name
  1,                                      !- Multiplier
  ,                                       !- Ceiling Height {m}
  356.390921899745,                       !- Volume {m3}
  ,                                       !- Floor Area {m2}
  ,                                       !- Zone Inside Convection Algorithm
  ,                                       !- Zone Outside Convection Algorithm
  ,                                       !- Zone Conditioning Equipment List Name
  {de464aaf-76fe-4e7b-b0cd-57043ea7ea46}, !- Zone Air Inlet Port List
  {b13e9d47-4d18-4f78-a5e9-b693df1904b0}, !- Zone Air Exhaust Port List
  {b147384a-e53d-499a-a258-bae7fdf85080}, !- Zone Air Node Name
  {a34fc782-702d-419d-be7f-67ea13c9f18f}, !- Zone Return Air Port List
  ,                                       !- Primary Daylighting Control Name
  ,                                       !- Fraction of Zone Controlled by Primary Daylighting Control
  ,                                       !- Secondary Daylighting Control Name
  ,                                       !- Fraction of Zone Controlled by Secondary Daylighting Control
  ,                                       !- Illuminance Map Name
  ,                                       !- Group Rendering Name
  ,                                       !- Thermostat Name
  No;                                     !- Use Ideal Air Loads

OS:Node,
  {091f25fa-6e47-42b9-a480-38291932d6c0}, !- Handle
  Node 2,                                 !- Name
  {b147384a-e53d-499a-a258-bae7fdf85080}, !- Inlet Port
  ;                                       !- Outlet Port

OS:Connection,
  {b147384a-e53d-499a-a258-bae7fdf85080}, !- Handle
  {0bba4bf7-ff1f-45df-97a3-9156caa35387}, !- Source Object
  11,                                     !- Outlet Port
  {091f25fa-6e47-42b9-a480-38291932d6c0}, !- Target Object
  2;                                      !- Inlet Port

OS:PortList,
  {de464aaf-76fe-4e7b-b0cd-57043ea7ea46}, !- Handle
  {0bba4bf7-ff1f-45df-97a3-9156caa35387}; !- HVAC Component

OS:PortList,
  {b13e9d47-4d18-4f78-a5e9-b693df1904b0}, !- Handle
  {0bba4bf7-ff1f-45df-97a3-9156caa35387}; !- HVAC Component

OS:PortList,
  {a34fc782-702d-419d-be7f-67ea13c9f18f}, !- Handle
  {0bba4bf7-ff1f-45df-97a3-9156caa35387}; !- HVAC Component

OS:Sizing:Zone,
  {3ab08079-55dd-4aab-aa59-4eaf506dfde6}, !- Handle
  {0bba4bf7-ff1f-45df-97a3-9156caa35387}, !- Zone or ZoneList Name
  SupplyAirTemperature,                   !- Zone Cooling Design Supply Air Temperature Input Method
  14,                                     !- Zone Cooling Design Supply Air Temperature {C}
  11.11,                                  !- Zone Cooling Design Supply Air Temperature Difference {deltaC}
  SupplyAirTemperature,                   !- Zone Heating Design Supply Air Temperature Input Method
  40,                                     !- Zone Heating Design Supply Air Temperature {C}
  11.11,                                  !- Zone Heating Design Supply Air Temperature Difference {deltaC}
  0.0085,                                 !- Zone Cooling Design Supply Air Humidity Ratio {kg-H2O/kg-air}
  0.008,                                  !- Zone Heating Design Supply Air Humidity Ratio {kg-H2O/kg-air}
  ,                                       !- Zone Heating Sizing Factor
  ,                                       !- Zone Cooling Sizing Factor
  DesignDay,                              !- Cooling Design Air Flow Method
  ,                                       !- Cooling Design Air Flow Rate {m3/s}
  ,                                       !- Cooling Minimum Air Flow per Zone Floor Area {m3/s-m2}
  ,                                       !- Cooling Minimum Air Flow {m3/s}
  ,                                       !- Cooling Minimum Air Flow Fraction
  DesignDay,                              !- Heating Design Air Flow Method
  ,                                       !- Heating Design Air Flow Rate {m3/s}
  ,                                       !- Heating Maximum Air Flow per Zone Floor Area {m3/s-m2}
  ,                                       !- Heating Maximum Air Flow {m3/s}
  ,                                       !- Heating Maximum Air Flow Fraction
  No,                                     !- Account for Dedicated Outdoor Air System
  NeutralSupplyAir,                       !- Dedicated Outdoor Air System Control Strategy
  autosize,                               !- Dedicated Outdoor Air Low Setpoint Temperature for Design {C}
  autosize,                               !- Dedicated Outdoor Air High Setpoint Temperature for Design {C}
  Sensible Load Only No Latent Load,      !- Zone Load Sizing Method
  HumidityRatioDifference,                !- Zone Latent Cooling Design Supply Air Humidity Ratio Input Method
  ,                                       !- Zone Dehumidification Design Supply Air Humidity Ratio {kgWater/kgDryAir}
  0.005,                                  !- Zone Cooling Design Supply Air Humidity Ratio Difference {kgWater/kgDryAir}
  HumidityRatioDifference,                !- Zone Latent Heating Design Supply Air Humidity Ratio Input Method
  ,                                       !- Zone Humidification Design Supply Air Humidity Ratio {kgWater/kgDryAir}
  0.005,                                  !- Zone Humidification Design Supply Air Humidity Ratio Difference {kgWater/kgDryAir}
  ,                                       !- Zone Humidistat Dehumidification Set Point Schedule Name
  ,                                       !- Zone Humidistat Humidification Set Point Schedule Name
  ,                                       !- Design Zone Air Distribution Effectiveness in Cooling Mode
  ,                                       !- Design Zone Air Distribution Effectiveness in Heating Mode
  ,                                       !- Design Zone Secondary Recirculation Fraction {dimensionless}
  ,                                       !- Design Minimum Zone Ventilation Efficiency {dimensionless}
  Coincident;                             !- Sizing Option

OS:ZoneHVAC:EquipmentList,
  {18bbfebe-8c1f-4aeb-8624-d367be739894}, !- Handle
  Zone HVAC Equipment List 2,             !- Name
  {0bba4bf7-ff1f-45df-97a3-9156caa35387}; !- Thermal Zone

OS:AdditionalProperties,
  {768b2d74-6d17-4ef8-8ecd-e5975713b4c7}, !- Handle
  {0bba4bf7-ff1f-45df-97a3-9156caa35387}, !- Object Name
  ObjectType,                             !- Feature Name 1
  String,                                 !- Feature Data Type 1
  attic - vented;                         !- Feature Value 1

OS:Space,
  {4ddb5f16-baa4-45bb-86dc-e976baa2693b}, !- Handle
  attic - vented 1,                       !- Name
  ,                                       !- Space Type Name
  ,                                       !- Default Construction Set Name
  ,                                       !- Default Schedule Set Name
  ,                                       !- Direction of Relative North {deg}
  ,                                       !- X Origin {m}
  ,                                       !- Y Origin {m}
  ,                                       !- Z Origin {m}
  ,                                       !- Building Story Name
  {0bba4bf7-ff1f-45df-97a3-9156caa35387}, !- Thermal Zone Name
  ,                                       !- Part of Total Floor Area
  ,                                       !- Design Specification Outdoor Air Object Name
  ,                                       !- Building Unit Name
  356.390921899745;                       !- Volume {m3}

OS:Material,
  {25b343bc-7d4c-45d3-8916-fda636f90c21}, !- Handle
  asphalt or fiberglass shingles,         !- Name
  Rough,                                  !- Roughness
  0.00635,                                !- Thickness {m}
  0.162714,                               !- Conductivity {W/m-K}
  1121.4,                                 !- Density {kg/m3}
  1465.45,                                !- Specific Heat {J/kg-K}
  0.9,                                    !- Thermal Absorptance
  0.85,                                   !- Solar Absorptance