
OS:Version,
  {35c118ca-9524-4f4f-bd0d-2ad512ffb253}, !- Handle
  3.10.0;                                 !- Version Identifier

OS:SimulationControl,
  {aa725940-2b83-4e8d-8999-339d5b7473a4}, !- Handle
  ,                                       !- Do Zone Sizing Calculation
  ,                                       !- Do System Sizing Calculation
  ,                                       !- Do Plant Sizing Calculation
  No;                                     !- Run Simulation for Sizing Periods

OS:Timestep,
  {a0ff17a8-489f-4534-b575-6eeb2accf983}, !- Handle
  1;                                      !- Number of Timesteps per Hour

OS:ShadowCalculation,
  {829e6004-8c84-4e25-b764-b206a3d775b2}, !- Handle
  PolygonClipping,                        !- Shading Calculation Method
  ,                                       !- Shading Calculation Update Frequency Method
  20,                                     !- Shading Calculation Update Frequency
  200,                                    !- Maximum Figures in Shadow Overlap Calculations
  ,                                       !- Polygon Clipping Algorithm
  512,                                    !- Pixel Counting Resolution
  ,                                       !- Sky Diffuse Modeling Algorithm
  No,                                     !- Output External Shading Calculation Results
  No,                                     !- Disable Self-Shading Within Shading Zone Groups
  No;                                     !- Disable Self-Shading From Shading Zone Groups to Other Zones

OS:SurfaceConvectionAlgorithm:Outside,
  {01608a8a-81f6-47c3-a5d0-fa3526b7c9e2}, !- Handle
  DOE-2;                                  !- Algorithm

OS:SurfaceConvectionAlgorithm:Inside,
  {a2f8d1bf-5310-497c-b5b3-c7e384711f97}, !- Handle
  TARP;                                   !- Algorithm

OS:ZoneCapacitanceMultiplier:ResearchSpecial,
  {6a21c60d-8233-488e-a28c-750e1e6f59ac}, !- Handle
  7,                                      !- Temperature Capacity Multiplier
  15,                                     !- Humidity Capacity Multiplier
  ;                                       !- Carbon Dioxide Capacity Multiplier

OS:ConvergenceLimits,
  {39859a80-4801-42b1-94c2-0f1ae5581c87}, !- Handle
  0;                                      !- Minimum System Timestep {minutes}

OS:RunPeriod,
  {dd60f569-c590-41ed-8ab1-f7ba16d74788}, !- Handle
  Run Period 1,                           !- Name
  1,                                      !- Begin Month
  1,                                      !- Begin Day of Month
  12,                                     !- End Month
  31,                                     !- End Day of Month
  ,                                       !- Use Weather File Holidays and Special Days
  ,                                       !- Use Weather File Daylight Saving Period
  ,                                       !- Apply Weekend Holiday Rule
  ,                                       !- Use Weather File Rain Indicators
  ,                                       !- Use Weather File Snow Indicators
  ;                                       !- Number of Times Runperiod to be Repeated

OS:PerformancePrecisionTradeoffs,
  {71b0155a-100b-4242-947e-c96c40b09818}, !- Handle
  ,                                       !- Use Coil Direct Solutions
  CarrollMRT;                             !- Zone Radiant Exchange Algorithm

OS:WeatherFile,
  {8ac5e417-e883-45cf-899c-ed24098c91ea}, !- Handle
  Buffalo Niagara Intl Ap,                !- City
  NY,                                     !- State Province Region
  USA,                                    !- Country
  TMY3,                                   !- Data Source
  725280,                                 !- WMO Number
  42.93,                                  !- Latitude {deg}
  -78.73,                                 !- Longitude {deg}
  -5,                                     !- Time Zone {hr}
  215,                                    !- Elevation {m}
  /Users/nmoore/github/urbanopt-example-geojson-project/example_project/weather/USA_NY_Buffalo-Greater.Buffalo.Intl.AP.725280_TMY3.epw, !- Url
  6B50E0FF,                               !- Checksum
  ,                                       !- Start Date Actual Year
  Sunday;                                 !- Start Day of Week

OS:YearDescription,
  {c99212fc-ffe2-4442-a07c-1a0427c160b1}, !- Handle
  2007,                                   !- Calendar Year
  ,                                       !- Day of Week for Start Day
  ;                                       !- Is Leap Year

OS:Site,
  {772db11b-ddd3-410f-ae23-6827b8ad3d7c}, !- Handle
  Buffalo Niagara Intl Ap_NY,             !- Name
  42.93,                                  !- Latitude {deg}
  -78.73,                                 !- Longitude {deg}
  -5,                                     !- Time Zone {hr}
  215,                                    !- Elevation {m}
  Suburbs,                                !- Terrain
  Yes;                                    !- Keep Site Location Information

OS:RunPeriodControl:DaylightSavingTime,
  {ebfb2060-7c47-4fa7-b33c-1ca93a89008d}, !- Handle
  Mar 12,                                 !- Start Date
  Nov 5;                                  !- End Date

OS:Site:GroundTemperature:Shallow,
  {b9f9b360-bc49-409c-a851-68b019365198}, !- Handle
  4.30207395723828,                       !- January Surface Ground Temperature {C}
  2.29327249652502,                       !- February Surface Ground Temperature {C}
  2.13240047156047,                       !- March Surface Ground Temperature {C}
  3.08567940719286,                       !- April Surface Ground Temperature {C}
  6.91256312497526,                       !- May Surface Ground Temperature {C}
  10.7216195949507,                       !- June Surface Ground Temperature {C}
  14.0238679822574,                       !- July Surface Ground Temperature {C}
  16.1157611184724,                       !- August Surface Ground Temperature {C}
  16.2934789303462,                       !- September Surface Ground Temperature {C}
  14.5920754632847,                       !- October Surface Ground Temperature {C}
  11.374036348653,                        !- November Surface Ground Temperature {C}
  7.68182621661674;                       !- December Surface Ground Temperature {C}

OS:ThermalZone,
  {80f6e64c-18bf-4273-b4d2-46af56fc8cda}, !- Handle
  conditioned space,                      !- Name
  1,                                      !- Multiplier
  ,                                       !- Ceiling Height {m}
  692.06373070848,                        !- Volume {m3}
  ,                                       !- Floor Area {m2}
  ,                                       !- Zone Inside Convection Algorithm
  ,                                       !- Zone Outside Convection Algorithm
  ,                                       !- Zone Conditioning Equipment List Name
  {f121a129-ce26-4bf2-8b10-76aabe755389}, !- Zone Air Inlet Port List
  {9c0cfd89-bace-4377-ad80-ce2b3da647d4}, !- Zone Air Exhaust Port List
  {51ed615e-c360-4ba9-b9f8-ac3d0c2f1e37}, !- Zone Air Node Name
  {ac7142ea-6ca9-47cc-81d1-67f4d75f2348}, !- Zone Return Air Port List
  ,                                       !- Primary Daylighting Control Name
  ,                                       !- Fraction of Zone Controlled by Primary Daylighting Control
  ,                                       !- Secondary Daylighting Control Name
  ,                                       !- Fraction of Zone Controlled by Secondary Daylighting Control
  ,                                       !- Illuminance Map Name
  ,                                       !- Group Rendering Name
  {56623ba9-9768-427f-be45-c9960acdb340}, !- Thermostat Name
  No;                                     !- Use Ideal Air Loads

OS:Node,
  {bef589f3-2fc0-4cfd-b973-e952af9a2956}, !- Handle
  Node 1,                                 !- Name
  {51ed615e-c360-4ba9-b9f8-ac3d0c2f1e37}, !- Inlet Port
  ;                                       !- Outlet Port

OS:Connection,
  {51ed615e-c360-4ba9-b9f8-ac3d0c2f1e37}, !- Handle
  {80f6e64c-18bf-4273-b4d2-46af56fc8cda}, !- Source Object
  11,                                     !- Outlet Port
  {bef589f3-2fc0-4cfd-b973-e952af9a2956}, !- Target Object
  2;                                      !- Inlet Port

OS:PortList,
  {f121a129-ce26-4bf2-8b10-76aabe755389}, !- Handle
  {80f6e64c-18bf-4273-b4d2-46af56fc8cda}, !- HVAC Component
  {f8be9207-fa8e-4e33-bde4-db661a2b711c}; !- Port 1

OS:PortList,
  {9c0cfd89-bace-4377-ad80-ce2b3da647d4}, !- Handle
  {80f6e64c-18bf-4273-b4d2-46af56fc8cda}; !- HVAC Component

OS:PortList,
  {ac7142ea-6ca9-47cc-81d1-67f4d75f2348}, !- Handle
  {80f6e64c-18bf-4273-b4d2-46af56fc8cda}, !- HVAC Component
  {ba989d8c-c163-4ff7-8b5f-1900abe08b55}; !- Port 1

OS:Sizing:Zone,
  {dc7a13e2-fded-4776-a307-afa2599992d0}, !- Handle
  {80f6e64c-18bf-4273-b4d2-46af56fc8cda}, !- Zone or ZoneList Name
  SupplyAirTemperature,                   !- Zone Cooling Design Supply Air Temperature Input Method
  14,                                     !- Zone Cooling Design Supply Air Temperature {C}
  11.11,                                  !- Zone Cooling Design Supply Air Temperature Difference {deltaC}
  SupplyAirTemperature,                   !- Zone Heating Design Supply Air Temperature Input Method
  40,                                     !- Zone Heating Design Supply Air Temperature {C}
  11.11,                                  !- Zone Heating Design Supply Air Temperature Difference {deltaC}
  0.0085,                                 !- Zone Cooling Design Supply Air Humidity Ratio {kg-H2O/kg-air}
  0.008,                                  !- Zone Heating Design Supply Air Humidity Ratio {kg-H2O/kg-air}
  ,                                       !- Zone Heating Sizing Factor
  ,                                       !- Zone Cooling Sizing Factor
  DesignDay,                              !- Cooling Design Air Flow Method
  ,                                       !- Cooling Design Air Flow Rate {m3/s}
  ,                                       !- Cooling Minimum Air Flow per Zone Floor Area {m3/s-m2}
  ,                                       !- Cooling Minimum Air Flow {m3/s}
  ,                                       !- Cooling Minimum Air Flow Fraction
  DesignDay,                              !- Heating Design Air Flow Method
  ,                                       !- Heating Design Air Flow Rate {m3/s}
  ,                                       !- Heating Maximum Air Flow per Zone Floor Area {m3/s-m2}
  ,                                       !- Heating Maximum Air Flow {m3/s}
  ,                                       !- Heating Maximum Air Flow Fraction
  No,                                     !- Account for Dedicated Outdoor Air System
  NeutralSupplyAir,                       !- Dedicated Outdoor Air System Control Strategy
  autosize,                               !- Dedicated Outdoor Air Low Setpoint Temperature for Design {C}
  autosize,                               !- Dedicated Outdoor Air High Setpoint Temperature for Design {C}
  Sensible Load Only No Latent Load,      !- Zone Load Sizing Method
  HumidityRatioDifference,                !- Zone Latent Cooling Design Supply Air Humidity Ratio Input Method
  ,                                       !- Zone Dehumidification Design Supply Air Humidity Ratio {kgWater/kgDryAir}
  0.005,                                  !- Zone Cooling Design Supply Air Humidity Ratio Difference {kgWater/kgDryAir}
  HumidityRatioDifference,                !- Zone Latent Heating Design Supply Air Humidity Ratio Input Method
  ,                                       !- Zone Humidification Design Supply Air Humidity Ratio {kgWater/kgDryAir}
  0.005,                                  !- Zone Humidification Design Supply Air Humidity Ratio Difference {kgWater/kgDryAir}
  ,                                       !- Zone Humidistat Dehumidification Set Point Schedule Name
  ,                                       !- Zone Humidistat Humidification Set Point Schedule Name
  ,                                       !- Design Zone Air Distribution Effectiveness in Cooling Mode
  ,                                       !- Design Zone Air Distribution Effectiveness in Heating Mode
  ,                                       !- Design Zone Secondary Recirculation Fraction {dimensionless}
  ,                                       !- Design Minimum Zone Ventilation Efficiency {dimensionless}
  Coincident;                             !- Sizing Option

OS:ZoneHVAC:EquipmentList,
  {90083fd3-54c8-457c-a16e-c47a4a6bb28a}, !- Handle
  Zone HVAC Equipment List 1,             !- Name
  {80f6e64c-18bf-4273-b4d2-46af56fc8cda}, !- Thermal Zone
  ,                                       !- Load Distribution Scheme
  {a069f665-fe27-49dc-9275-590d1ac68738}, !- Zone Equipment 1
  1,                                      !- Zone Equipment Cooling Sequence 1
  1,                                      !- Zone Equipment Heating or No-Load Sequence 1
  {02ba0956-616f-4425-a468-69e8aedb1c15}, !- Zone Equipment Sequential Cooling Fraction Schedule Name 1
  {4f080b61-7e0f-4c36-8138-1729f13c4524}; !- Zone Equipment Sequential Heating Fraction Schedule Name 1

OS:AdditionalProperties,
  {c5b7ec65-2f00-42ce-b3b8-5f1f9382f503}, !- Handle
  {80f6e64c-18bf-4273-b4d2-46af56fc8cda}, !- Object Name
  ObjectType,                             !- Feature Name 1
  String,                                 !- Feature Data Type 1
  conditioned space;                      !- Feature Value 1

OS:Space,
  {9c7db263-3691-46b9-a9dc-e773874148d3}, !- Handle
  conditioned space 1,                    !- Name
  ,                                       !- Space Type Name
  ,                                       !- Default Construction Set Name
  ,                                       !- Default Schedule Set Name
  ,                                       !- Direction of Relative North {deg}
  ,                                       !- X Origin {m}
  ,                                       !- Y Origin {m}
  ,                                       !- Z Origin {m}
  ,                                       !- Building Story Name
  {80f6e64c-18bf-4273-b4d2-46af56fc8cda}, !- Thermal Zone Name
  ,                                       !- Part of Total Floor Area
  ,                                       !- Design Specification Outdoor Air Object Name
  ,                                       !- Building Unit Name
  692.06373070848;                        !- Volume {m3}

OS:Schedule:Ruleset,
  {67e56d83-d1ff-4947-bed1-31ea3e70f864}, !- Handle
  heating setpoint,                       !- Name
  {87a773fb-ea57-4032-baa4-093a546834d8}, !- Schedule Type Limits Name
  {4db1600b-3056-4067-99bc-d98ee45d11b6}; !- Default Day Schedule Name

OS:Schedule:Day,
  {4db1600b-3056-4067-99bc-d98ee45d11b6}, !- Handle
  heating setpoint default day,           !- Name
  {87a773fb-ea57-4032-baa4-093a546834d8}, !- Schedule Type Limits Name
  ,                                       !- Interpolate to Timestep
  24,                                     !- Hour 1
  0,                                      !- Minute 1
  0;                                      !- Value Until Time 1

OS:Schedule:Rule,
  {c9c7e2cc-779c-4665-a272-b1de9daef6b2}, !- Handle
  heating setpoint allday rule,           !- Name
  {67e56d83-d1ff-4947-bed1-31ea3e70f864}, !- Schedule Ruleset Name
  0,                                      !- Rule Order
  {c99130bc-796d-4894-bd59-519b1f9522f0}, !- Day Schedule Name
  Yes,                                    !- Apply Sunday
  Yes,                                    !- Apply Monday
  Yes,                                    !- Apply Tuesday
  Yes,                                    !- Apply Wednesday
  Yes,                                    !- Apply Thursday
  Yes,                                    !- Apply Friday
  Yes,                                    !- Apply Saturday
  DateRange,                              !- Date Specification Type
  1,                                      !- Start Month
  1,                                      !- Start Day
  12,                                     !- End Month
  31;                                     !- End Day

OS:Schedule:Day,
  {c99130bc-796d-4894-bd59-519b1f9522f0}, !- Handle
  heating setpoint day,                   !- Name
  {87a773fb-ea57-4032-baa4-093a546834d8}, !- Schedule Type Limits Name
  ,                                       !- Interpolate to Timestep
  24,                                     !- Hour 1
  0,                                      !- Minute 1
  20;                                     !- Value Until Time 1

OS:Schedule:Ruleset,
  {8679acf3-63bd-4f4f-9b0e-2e07b22199a5}, !- Handle
  cooling setpoint,                       !- Name
  {87a773fb-ea57-4032-baa4-093a546834d8}, !- Schedule Type Limits Name
  {2c5c607b-82bf-4385-ae89-81584e4b31a3}; !- Default Day Schedule Name

OS:Schedule:Day,
  {2c5c607b-82bf-4385-ae89-81584e4b31a3}, !- Handle
  cooling setpoint default day,           !- Name
  {87a773fb-ea57-4032-baa4-093a546834d8}, !- Schedule Type Limits Name
  ,                                       !- Interpolate to Timestep
  24,                                     !- Hour 1
  0,                                      !- Minute 1
  0;                                      !- Value Until Time 1

OS:Schedule:Rule,
  {674ba5ad-b944-448c-be80-fe3a5525a0d2}, !- Handle
  cooling setpoint allday rule,           !- Name
  {8679acf3-63bd-4f4f-9b0e-2e07b22199a5}, !- Schedule Ruleset Name
  0,                                      !- Rule Order
  {748d5d03-f289-42b7-990c-789776ff8af2}, !- Day Schedule Name
  Yes,                                    !- Apply Sunday
  Yes,                                    !- Apply Monday
  Yes,                                    !- Apply Tuesday
  Yes,                                    !- Apply Wednesday
  Yes,                                    !- Apply Thursday
  Yes,                                    !- Apply Friday
  Yes,                                    !- Apply Saturday
  DateRange,                              !- Date Specification Type
  1,                                      !- Start Month
  1,                                      !- Start Day
  12,                                     !- End Month
  31;                                     !- End Day

OS:Schedule:Day,
  {748d5d03-f289-42b7-990c-789776ff8af2}, !- Handle
  cooling setpoint day,                   !- Name
  {87a773fb-ea57-4032-baa4-093a546834d8}, !- Schedule Type Limits Name
  ,                                       !- Interpolate to Timestep
  24,                                     !- Hour 1
  0,                                      !- Minute 1
  25.5555555555556;                       !- Value Until Time 1

OS:ThermostatSetpoint:DualSetpoint,
  {56623ba9-9768-427f-be45-c9960acdb340}, !- Handle
  conditioned space temperature setpoint, !- Name
  {67e56d83-d1ff-4947-bed1-31ea3e70f864}, !- Heating Setpoint Temperature Schedule Name
  {8679acf3-63bd-4f4f-9b0e-2e07b22199a5}, !- Cooling Setpoint Temperature Schedule Name
  0;                                      !- Temperature Difference Between Cutout And Setpoint {deltaC}

OS:ScheduleTypeLimits,
  {87a773fb-ea57-4032-baa4-093a546834d8}, !- Handle
  Temperature,                            !- Name
  ,                                       !- Lower Limit Value
  ,                                       !- Upper Limit Value
  Continuous,                             !- Numeric Type
  Temperature;                            !- Unit Type

OS:Surface,
  {1d643052-cfca-45c7-931e-d324e6bf70e2}, !- Handle
  Roof1,                                  !- Name
  RoofCeiling,                            !- Surface Type
  {d13c0578-23de-4116-9196-102d22771b92}, !- Construction Name
  {9c7db263-3691-46b9-a9dc-e773874148d3}, !- Space Name
  Outdoors,                               !- Outside Boundary Condition
  ,                                       !- Outside Boundary Condition Object
  SunExposed,                             !- Sun Exposure
  WindExposed,                            !- Wind Exposure
  ,                                       !- View Factor to Ground
  ,                                       !- Number of Vertices
  -8.42346109387347, 8.42346109387347, 3.048, !- X,Y,Z Vertex 1 {m}
  -8.42346109387347, -8.42346109387347, 3.048, !- X,Y,Z Vertex 2 {m}
  8.42346109387347, -8.42346109387347, 3.048, !- X,Y,Z Vertex 3 {m}
  8.42346109387347, 8.42346109387347, 3.048; !- X,Y,Z Vertex 4 {m}

OS:AdditionalProperties,
  {ee454eff-76b4-4fb1-8481-cd4d3dce718a}, !- Handle
  {1d643052-cfca-45c7-931e-d324e6bf70e2}, !- Object Name
  Length,                                 !- Feature Name 1
  Double,                                 !- Feature Data Type 1
  55.27205442174192,                      !- Feature Value 1
  Width,                                  !- Feature Name 2
  Double,                                 !- Feature Data Type 2
  55.272054421741913,                     !- Feature Value 2
  Azimuth,                                !- Feature Name 3
  Integer,                                !- Feature Data Type 3
  0,                                      !- Feature Value 3
  Tilt,                                   !- Feature Name 4
  Double,                                 !- Feature Data Type 4
  0,                                      !- Feature Value 4
  SurfaceType,                            !- Feature Name 5
  String,                                 !- Feature Data Type 5
  Roof;                                   !- Feature Value 5

OS:Material,
  {ae2ff50f-7689-4896-b2b8-6bbad1878368}, !- Handle
  asphalt or fiberglass shingles,         !- Name
  Rough,                                  !- Roughness
  0.00635,                                !- Thickness {m}
  0.162714,                               !- Conductivity {W/m-K}
  1121.4,                                 !- Density {kg/m3}
  1465.45,                                !- Specific Heat {J/kg-K}
  0.9,                                    !- Thermal Absorptance
  0.85,                                   !- Solar Absorptance
  0.85;                                   !- Visible Absorptance

OS:Material,
  {c19f0989-73c1-495e-a0df-4c1695d73563}, !- Handle
  roof stud and cavity,                   !- Name
  Rough,                                  !- Roughness
  0.0889,                                 !- Thickness {m}
  0.491900632004487,                      !- Conductivity {W/m-K}
  50.32683,                               !- Density {kg/m3}
  1063.80987585548,                       !- Specific Heat {J/kg-K}
  0.9,                                    !- Thermal Absorptance
  0.7,                                    !- Solar Absorptance
  0.7;                                    !- Visible Absorptance

OS:Material,
  {4b13868e-d0f1-4a5b-b980-4b6c6df429a2}, !- Handle
  gypsum board,                           !- Name
  Rough,                                  !- Roughness
  0.00254,                                !- Thickness {m}
  0.1602906,                              !- Conductivity {W/m-K}
  801,                                    !- Density {kg/m3}
  837.4,                                  !- Specific Heat {J/kg-K}
  0.9,                                    !- Thermal Absorptance
  0.6,                                    !- Solar Absorptance
  0.6;                                    !- Visible Absorptance

OS:Construction,
  {d13c0578-23de-4116-9196-102d22771b92}, !- Handle
  Roof1 construction,                     !- Name
  ,                                       !- Surface Rendering Name
  {ae2ff50f-7689-4896-b2b8-6bbad1878368}, !- Layer 1
  {c19f0989-73c1-495e-a0df-4c1695d73563}, !- Layer 2
  {4b13868e-d0f1-4a5b-b980-4b6c6df429a2}; !- Layer 3

OS:Surface,
  {50ab404b-ac56-4998-92dc-5d7f6df73fd1}, !- Handle
  Wall1,                                  !- Name
  Wall,                                   !- Surface Type
  {f8eb41fc-756c-481c-a85c-c95df8005e60}, !- Construction Name
  {9c7db263-3691-46b9-a9dc-e773874148d3}, !- Space Name
  Outdoors,                               !- Outside Boundary Condition
  ,                                       !- Outside Boundary Condition Object
  SunExposed,                             !- Sun Exposure
  WindExposed,                            !- Wind Exposure
  ,                                       !- View Factor to Ground
  ,                                       !- Number of Vertices
  -13.6265098242187, 15.6365136527044, 0.6096, !- X,Y,Z Vertex 1 {m}
  -13.6265098242187, 15.6365136527044, 3.048, !- X,Y,Z Vertex 2 {m}
  5.90736017578134, 15.6365136527044, 3.048, !- X,Y,Z Vertex 3 {m}
  5.90736017578134, 15.6365136527044, 0.6096; !- X,Y,Z Vertex 4 {m}

OS:AdditionalProperties,
  {28ad97f0-237d-4ee0-83fb-c5044bf6b1ed}, !- Handle
  {50ab404b-ac56-4998-92dc-5d7f6df73fd1}, !- Object Name
  Length,                                 !- Feature Name 1
  Double,                                 !- Feature Data Type 1
  64.087499999999991,                     !- Feature Value 1
  Azimuth,                                !- Feature Name 2
  Integer,                                !- Feature Data Type 2
  0,                                      !- Feature Value 2
  Tilt,                                   !- Feature Name 3
  Double,                                 !- Feature Data Type 3
  90,                                     !- Feature Value 3
  SurfaceType,                            !- Feature Name 4
  String,                                 !- Feature Data Type 4
  Wall;                                   !- Feature Value 4

OS:Material,
  {b5746aac-8e4a-4a10-9d26-582c54bf18ca}, !- Handle
  wood siding,                            !- Name
  Rough,                                  !- Roughness
  0.0254,                                 !- Thickness {m}
  0.1024175,                              !- Conductivity {W/m-K}
  544.68,                                 !- Density {kg/m3}
  1172.36,                                !- Specific Heat {J/kg-K}
  0.9,                                    !- Thermal Absorptance
  0.7,                                    !- Solar Absorptance
  0.7;                                    !- Visible Absorptance

OS:Material,
  {b968cccd-2c79-4147-8d8a-f2a88a0426c0}, !- Handle
  osb sheathing 0.5 in.,                  !- Name
  Rough,                                  !- Roughness
  0.0127,                                 !- Thickness {m}
  0.1154577,                              !- Conductivity {W/m-K}
  512.64,                                 !- Density {kg/m3}
  1214.23,                                !- Specific Heat {J/kg-K}
  0.9,                                    !- Thermal Absorptance
  0.7,                                    !- Solar Absorptance
  0.7;                                    !- Visible Absorptance

OS:Material,
  {a0a422ca-4e34-44c9-8850-e79a5b52e3ca}, !- Handle
  wall stud and cavity,                   !- Name
  Rough,                                  !- Roughness
  0.1397,                                 !- Thickness {m}
  0.0929021674204099,                     !- Conductivity {W/m-K}
  139.0536,                               !- Density {kg/m3}
  1170.23755760369,                       !- Specific Heat {J/kg-K}
  0.9,                                    !- Thermal Absorptance
  0.7,                                    !- Solar Absorptance
  0.7;                                    !- Visible Absorptance

OS:Material,
  {c44c3016-855f-4e29-a9a5-32eb4ac09135}, !- Handle
  gypsum board 1,                         !- Name
  Rough,                                  !- Roughness
  0.0127,                                 !- Thickness {m}
  0.1602906,                              !- Conductivity {W/m-K}
  801,                                    !- Density {kg/m3}
  837.4,                                  !- Specific Heat {J/kg-K}
  0.9,                                    !- Thermal Absorptance
  0.6,                                    !- Solar Absorptance
  0.6;                                    !- Visible Absorptance

OS:Construction,
  {f8eb41fc-756c-481c-a85c-c95df8005e60}, !- Handle
  Wall1 construction,                     !- Name
  ,                                       !- Surface Rendering Name
  {b5746aac-8e4a-4a10-9d26-582c54bf18ca}, !- Layer 1
  {b968cccd-2c79-4147-8d8a-f2a88a0426c0}, !- Layer 2
  {a0a422ca-4e34-44c9-8850-e79a5b52e3ca}, !- Layer 3
  {c44c3016-855f-4e29-a9a5-32eb4ac09135}; !- Layer 4

OS:Surface,
  {04b2da81-d4bd-481f-8aac-b68cad3742e7}, !- Handle
  Wall2,                                  !- Name
  Wall,                                   !- Surface Type
  {2a52bc87-c0ad-493b-bbba-807707005545}, !- Construction Name
  {9c7db263-3691-46b9-a9dc-e773874148d3}, !- Space Name
  Outdoors,                               !- Outside Boundary Condition
  ,                                       !- Outside Boundary Condition Object
  SunExposed,                             !- Sun Exposure
  WindExposed,                            !- Wind Exposure
  ,                                       !- View Factor to Ground
  ,                                       !- Number of Vertices
  15.6365136527044, -0.538581714242879, 0.6096, !- X,Y,Z Vertex 1 {m}
  15.6365136527044, -0.538581714242879, 3.048, !- X,Y,Z Vertex 2 {m}
  15.6365136527044, -10.3074217142429, 3.048, !- X,Y,Z Vertex 3 {m}
  15.6365136527044, -10.3074217142429, 0.6096; !- X,Y,Z Vertex 4 {m}

OS:AdditionalProperties,
  {0656da91-968b-4abe-b184-279481e938f6}, !- Handle
  {04b2da81-d4bd-481f-8aac-b68cad3742e7}, !- Object Name
  Length,                                 !- Feature Name 1
  Double,                                 !- Feature Data Type 1
  32.049999999999997,                     !- Feature Value 1
  Azimuth,                                !- Feature Name 2