
OS:Version,
  {6938947e-7a1b-46ea-8448-1472d42f3445}, !- Handle
  3.9.0;                                  !- Version Identifier

OS:SimulationControl,
  {7c371664-e3c1-4e90-bfd2-b66bfb6c2b5f}, !- Handle
  ,                                       !- Do Zone Sizing Calculation
  ,                                       !- Do System Sizing Calculation
  ,                                       !- Do Plant Sizing Calculation
  No;                                     !- Run Simulation for Sizing Periods

OS:Timestep,
  {736ec208-76c9-486b-9017-4dbe9a185506}, !- Handle
  1;                                      !- Number of Timesteps per Hour

OS:ShadowCalculation,
  {7ac8bf29-8b3c-4930-ae40-595c178d3665}, !- Handle
  PolygonClipping,                        !- Shading Calculation Method
  ,                                       !- Shading Calculation Update Frequency Method
  20,                                     !- Shading Calculation Update Frequency
  200,                                    !- Maximum Figures in Shadow Overlap Calculations
  ,                                       !- Polygon Clipping Algorithm
  512,                                    !- Pixel Counting Resolution
  ,                                       !- Sky Diffuse Modeling Algorithm
  No,                                     !- Output External Shading Calculation Results
  No,                                     !- Disable Self-Shading Within Shading Zone Groups
  No;                                     !- Disable Self-Shading From Shading Zone Groups to Other Zones

OS:SurfaceConvectionAlgorithm:Outside,
  {aa42ff06-30d3-45b9-a6c6-e4fb618c3b12}, !- Handle
  DOE-2;                                  !- Algorithm

OS:SurfaceConvectionAlgorithm:Inside,
  {3487e129-d8e6-48d9-8150-70d5b17621c2}, !- Handle
  TARP;                                   !- Algorithm

OS:ZoneCapacitanceMultiplier:ResearchSpecial,
  {a08964bb-6ca0-4e6e-b6de-a5bdc2e8d23e}, !- Handle
  7,                                      !- Temperature Capacity Multiplier
  15,                                     !- Humidity Capacity Multiplier
  ;                                       !- Carbon Dioxide Capacity Multiplier

OS:ConvergenceLimits,
  {33135132-b27c-45f1-9c55-b0519c695735}, !- Handle
  0;                                      !- Minimum System Timestep {minutes}

OS:RunPeriod,
  {48ee20b9-a099-4dfa-9be8-dc55a6a9f836}, !- Handle
  Run Period 1,                           !- Name
  1,                                      !- Begin Month
  1,                                      !- Begin Day of Month
  12,                                     !- End Month
  31,                                     !- End Day of Month
  ,                                       !- Use Weather File Holidays and Special Days
  ,                                       !- Use Weather File Daylight Saving Period
  ,                                       !- Apply Weekend Holiday Rule
  ,                                       !- Use Weather File Rain Indicators
  ,                                       !- Use Weather File Snow Indicators
  ;                                       !- Number of Times Runperiod to be Repeated

OS:PerformancePrecisionTradeoffs,
  {af0d9aff-7035-403d-97b0-77f15e37b1c5}, !- Handle
  ,                                       !- Use Coil Direct Solutions
  CarrollMRT;                             !- Zone Radiant Exchange Algorithm

OS:WeatherFile,
  {8bf21b58-65ff-466c-ae66-efabfae8a34a}, !- Handle
  Buffalo Niagara Intl Ap,                !- City
  NY,                                     !- State Province Region
  USA,                                    !- Country
  TMY3,                                   !- Data Source
  725280,                                 !- WMO Number
  42.93,                                  !- Latitude {deg}
  -78.73,                                 !- Longitude {deg}
  -5,                                     !- Time Zone {hr}
  215,                                    !- Elevation {m}
  /Users/nmoore/github/urbanopt-example-geojson-project/example_project/weather/USA_NY_Buffalo-Greater.Buffalo.Intl.AP.725280_TMY3.epw, !- Url
  6B50E0FF,                               !- Checksum
  ,                                       !- Start Date Actual Year
  Sunday;                                 !- Start Day of Week

OS:YearDescription,
  {d64fcd78-8452-4522-aa32-1cfcc6d47bb2}, !- Handle
  2007,                                   !- Calendar Year
  ,                                       !- Day of Week for Start Day
  ;                                       !- Is Leap Year

OS:Site,
  {9414eff0-564a-46bd-92d8-fb1297381b79}, !- Handle
  Buffalo Niagara Intl Ap_NY,             !- Name
  42.93,                                  !- Latitude {deg}
  -78.73,                                 !- Longitude {deg}
  -5,                                     !- Time Zone {hr}
  215,                                    !- Elevation {m}
  Suburbs,                                !- Terrain
  Yes;                                    !- Keep Site Location Information

OS:RunPeriodControl:DaylightSavingTime,
  {0ec5d0e1-c9b5-415e-96de-29546be5c6de}, !- Handle
  Mar 12,                                 !- Start Date
  Nov 5;                                  !- End Date

OS:Site:GroundTemperature:Shallow,
  {09998000-2136-42ab-838a-14782c76678d}, !- Handle
  4.30207395723828,                       !- January Surface Ground Temperature {C}
  2.29327249652502,                       !- February Surface Ground Temperature {C}
  2.13240047156047,                       !- March Surface Ground Temperature {C}
  3.08567940719286,                       !- April Surface Ground Temperature {C}
  6.91256312497526,                       !- May Surface Ground Temperature {C}
  10.7216195949507,                       !- June Surface Ground Temperature {C}
  14.0238679822574,                       !- July Surface Ground Temperature {C}
  16.1157611184724,                       !- August Surface Ground Temperature {C}
  16.2934789303462,                       !- September Surface Ground Temperature {C}
  14.5920754632847,                       !- October Surface Ground Temperature {C}
  11.374036348653,                        !- November Surface Ground Temperature {C}
  7.68182621661674;                       !- December Surface Ground Temperature {C}

OS:ThermalZone,
  {67a85760-6e3b-41d9-ac29-d981c105b1bd}, !- Handle
  conditioned space,                      !- Name
  1,                                      !- Multiplier
  ,                                       !- Ceiling Height {m}
  692.06373070848,                        !- Volume {m3}
  ,                                       !- Floor Area {m2}
  ,                                       !- Zone Inside Convection Algorithm
  ,                                       !- Zone Outside Convection Algorithm
  ,                                       !- Zone Conditioning Equipment List Name
  {f42100a9-e198-416f-8516-b364333bc886}, !- Zone Air Inlet Port List
  {bc708047-0fcd-4409-890b-a08a8296e053}, !- Zone Air Exhaust Port List
  {c1e4cafd-5304-416c-8c29-e8f9b16f656f}, !- Zone Air Node Name
  {58230756-12b2-4ee3-932c-0e10c783d3c6}, !- Zone Return Air Port List
  ,                                       !- Primary Daylighting Control Name
  ,                                       !- Fraction of Zone Controlled by Primary Daylighting Control
  ,                                       !- Secondary Daylighting Control Name
  ,                                       !- Fraction of Zone Controlled by Secondary Daylighting Control
  ,                                       !- Illuminance Map Name
  ,                                       !- Group Rendering Name
  {0662a2d2-2210-4218-9087-e219f4692779}, !- Thermostat Name
  No;                                     !- Use Ideal Air Loads

OS:Node,
  {2aea4db6-0bcc-49e3-a539-eecccffdadb2}, !- Handle
  Node 1,                                 !- Name
  {c1e4cafd-5304-416c-8c29-e8f9b16f656f}, !- Inlet Port
  ;                                       !- Outlet Port

OS:Connection,
  {c1e4cafd-5304-416c-8c29-e8f9b16f656f}, !- Handle
  {67a85760-6e3b-41d9-ac29-d981c105b1bd}, !- Source Object
  11,                                     !- Outlet Port
  {2aea4db6-0bcc-49e3-a539-eecccffdadb2}, !- Target Object
  2;                                      !- Inlet Port

OS:PortList,
  {f42100a9-e198-416f-8516-b364333bc886}, !- Handle
  {67a85760-6e3b-41d9-ac29-d981c105b1bd}, !- HVAC Component
  {5009f4fd-68e6-4648-b725-8e1410d5b31f}; !- Port 1

OS:PortList,
  {bc708047-0fcd-4409-890b-a08a8296e053}, !- Handle
  {67a85760-6e3b-41d9-ac29-d981c105b1bd}; !- HVAC Component

OS:PortList,
  {58230756-12b2-4ee3-932c-0e10c783d3c6}, !- Handle
  {67a85760-6e3b-41d9-ac29-d981c105b1bd}, !- HVAC Component
  {c998a2e5-3bea-4ea3-93ba-4dea5e66d8c1}; !- Port 1

OS:Sizing:Zone,
  {d2427cf5-ef4b-4d98-983f-88f5732c3190}, !- Handle
  {67a85760-6e3b-41d9-ac29-d981c105b1bd}, !- Zone or ZoneList Name
  SupplyAirTemperature,                   !- Zone Cooling Design Supply Air Temperature Input Method
  14,                                     !- Zone Cooling Design Supply Air Temperature {C}
  11.11,                                  !- Zone Cooling Design Supply Air Temperature Difference {deltaC}
  SupplyAirTemperature,                   !- Zone Heating Design Supply Air Temperature Input Method
  40,                                     !- Zone Heating Design Supply Air Temperature {C}
  11.11,                                  !- Zone Heating Design Supply Air Temperature Difference {deltaC}
  0.0085,                                 !- Zone Cooling Design Supply Air Humidity Ratio {kg-H2O/kg-air}
  0.008,                                  !- Zone Heating Design Supply Air Humidity Ratio {kg-H2O/kg-air}
  ,                                       !- Zone Heating Sizing Factor
  ,                                       !- Zone Cooling Sizing Factor
  DesignDay,                              !- Cooling Design Air Flow Method
  ,                                       !- Cooling Design Air Flow Rate {m3/s}
  ,                                       !- Cooling Minimum Air Flow per Zone Floor Area {m3/s-m2}
  ,                                       !- Cooling Minimum Air Flow {m3/s}
  ,                                       !- Cooling Minimum Air Flow Fraction
  DesignDay,                              !- Heating Design Air Flow Method
  ,                                       !- Heating Design Air Flow Rate {m3/s}
  ,                                       !- Heating Maximum Air Flow per Zone Floor Area {m3/s-m2}
  ,                                       !- Heating Maximum Air Flow {m3/s}
  ,                                       !- Heating Maximum Air Flow Fraction
  No,                                     !- Account for Dedicated Outdoor Air System
  NeutralSupplyAir,                       !- Dedicated Outdoor Air System Control Strategy
  autosize,                               !- Dedicated Outdoor Air Low Setpoint Temperature for Design {C}
  autosize,                               !- Dedicated Outdoor Air High Setpoint Temperature for Design {C}
  Sensible Load Only No Latent Load,      !- Zone Load Sizing Method
  HumidityRatioDifference,                !- Zone Latent Cooling Design Supply Air Humidity Ratio Input Method
  ,                                       !- Zone Dehumidification Design Supply Air Humidity Ratio {kgWater/kgDryAir}
  0.005,                                  !- Zone Cooling Design Supply Air Humidity Ratio Difference {kgWater/kgDryAir}
  HumidityRatioDifference,                !- Zone Latent Heating Design Supply Air Humidity Ratio Input Method
  ,                                       !- Zone Humidification Design Supply Air Humidity Ratio {kgWater/kgDryAir}
  0.005,                                  !- Zone Humidification Design Supply Air Humidity Ratio Difference {kgWater/kgDryAir}
  ,                                       !- Zone Humidistat Dehumidification Set Point Schedule Name
  ,                                       !- Zone Humidistat Humidification Set Point Schedule Name
  ,                                       !- Design Zone Air Distribution Effectiveness in Cooling Mode
  ,                                       !- Design Zone Air Distribution Effectiveness in Heating Mode
  ,                                       !- Design Zone Secondary Recirculation Fraction {dimensionless}
  ,                                       !- Design Minimum Zone Ventilation Efficiency {dimensionless}
  Coincident;                             !- Sizing Option

OS:ZoneHVAC:EquipmentList,
  {9e9f7127-3607-463f-8b39-ae625407d883}, !- Handle
  Zone HVAC Equipment List 1,             !- Name
  {67a85760-6e3b-41d9-ac29-d981c105b1bd}, !- Thermal Zone
  ,                                       !- Load Distribution Scheme
  {4aaed245-0d73-40da-b6bd-da0f6f90da94}, !- Zone Equipment 1
  1,                                      !- Zone Equipment Cooling Sequence 1
  1,                                      !- Zone Equipment Heating or No-Load Sequence 1
  {09dbc0d0-8ef3-45e2-9744-d1808ec76005}, !- Zone Equipment Sequential Cooling Fraction Schedule Name 1
  {714e0fbf-514e-4eb8-b35b-ea967f9c45dd}; !- Zone Equipment Sequential Heating Fraction Schedule Name 1

OS:AdditionalProperties,
  {306aa672-2dd3-4826-adaa-e8ff88a74cbe}, !- Handle
  {67a85760-6e3b-41d9-ac29-d981c105b1bd}, !- Object Name
  ObjectType,                             !- Feature Name 1
  String,                                 !- Feature Data Type 1
  conditioned space;                      !- Feature Value 1

OS:Space,
  {e0670585-4be7-411b-b7ed-656058fad94d}, !- Handle
  conditioned space 1,                    !- Name
  ,                                       !- Space Type Name
  ,                                       !- Default Construction Set Name
  ,                                       !- Default Schedule Set Name
  ,                                       !- Direction of Relative North {deg}
  ,                                       !- X Origin {m}
  ,                                       !- Y Origin {m}
  ,                                       !- Z Origin {m}
  ,                                       !- Building Story Name
  {67a85760-6e3b-41d9-ac29-d981c105b1bd}, !- Thermal Zone Name
  ,                                       !- Part of Total Floor Area
  ,                                       !- Design Specification Outdoor Air Object Name
  ,                                       !- Building Unit Name
  692.06373070848;                        !- Volume {m3}

OS:Schedule:Ruleset,
  {954c8ca1-6281-4a6a-a366-3cca84f35e70}, !- Handle
  heating setpoint,                       !- Name
  {bc98a751-0f0e-42b7-8dec-b6c0e317dc78}, !- Schedule Type Limits Name
  {d2b5f8ac-efcf-45bc-9be7-1c0ff56d4c61}; !- Default Day Schedule Name

OS:Schedule:Day,
  {d2b5f8ac-efcf-45bc-9be7-1c0ff56d4c61}, !- Handle
  heating setpoint default day,           !- Name
  {bc98a751-0f0e-42b7-8dec-b6c0e317dc78}, !- Schedule Type Limits Name
  ,                                       !- Interpolate to Timestep
  24,                                     !- Hour 1
  0,                                      !- Minute 1
  0;                                      !- Value Until Time 1

OS:Schedule:Rule,
  {13fa7c75-a196-42b1-954e-2d21bc881b6b}, !- Handle
  heating setpoint allday rule,           !- Name
  {954c8ca1-6281-4a6a-a366-3cca84f35e70}, !- Schedule Ruleset Name
  0,                                      !- Rule Order
  {e559744a-e93c-4617-8b93-4cb596518db8}, !- Day Schedule Name
  Yes,                                    !- Apply Sunday
  Yes,                                    !- Apply Monday
  Yes,                                    !- Apply Tuesday
  Yes,                                    !- Apply Wednesday
  Yes,                                    !- Apply Thursday
  Yes,                                    !- Apply Friday
  Yes,                                    !- Apply Saturday
  DateRange,                              !- Date Specification Type
  1,                                      !- Start Month
  1,                                      !- Start Day
  12,                                     !- End Month
  31;                                     !- End Day

OS:Schedule:Day,
  {e559744a-e93c-4617-8b93-4cb596518db8}, !- Handle
  heating setpoint day,                   !- Name
  {bc98a751-0f0e-42b7-8dec-b6c0e317dc78}, !- Schedule Type Limits Name
  ,                                       !- Interpolate to Timestep
  24,                                     !- Hour 1
  0,                                      !- Minute 1
  20;                                     !- Value Until Time 1

OS:Schedule:Ruleset,
  {d8042453-a949-4678-8ab3-0829c4951460}, !- Handle
  cooling setpoint,                       !- Name
  {bc98a751-0f0e-42b7-8dec-b6c0e317dc78}, !- Schedule Type Limits Name
  {cc2e6e61-9cb2-4d79-a3d1-dbbfa8c42bdb}; !- Default Day Schedule Name

OS:Schedule:Day,
  {cc2e6e61-9cb2-4d79-a3d1-dbbfa8c42bdb}, !- Handle
  cooling setpoint default day,           !- Name
  {bc98a751-0f0e-42b7-8dec-b6c0e317dc78}, !- Schedule Type Limits Name
  ,                                       !- Interpolate to Timestep
  24,                                     !- Hour 1
  0,                                      !- Minute 1
  0;                                      !- Value Until Time 1

OS:Schedule:Rule,
  {2e6729a3-357a-45d5-bac4-54f783732ea2}, !- Handle
  cooling setpoint allday rule,           !- Name
  {d8042453-a949-4678-8ab3-0829c4951460}, !- Schedule Ruleset Name
  0,                                      !- Rule Order
  {28c13899-f5ea-44f3-b72a-0d4cb64370fe}, !- Day Schedule Name
  Yes,                                    !- Apply Sunday
  Yes,                                    !- Apply Monday
  Yes,                                    !- Apply Tuesday
  Yes,                                    !- Apply Wednesday
  Yes,                                    !- Apply Thursday
  Yes,                                    !- Apply Friday
  Yes,                                    !- Apply Saturday
  DateRange,                              !- Date Specification Type
  1,                                      !- Start Month
  1,                                      !- Start Day
  12,                                     !- End Month
  31;                                     !- End Day

OS:Schedule:Day,
  {28c13899-f5ea-44f3-b72a-0d4cb64370fe}, !- Handle
  cooling setpoint day,                   !- Name
  {bc98a751-0f0e-42b7-8dec-b6c0e317dc78}, !- Schedule Type Limits Name
  ,                                       !- Interpolate to Timestep
  24,                                     !- Hour 1
  0,                                      !- Minute 1
  25.5555555555556;                       !- Value Until Time 1

OS:ThermostatSetpoint:DualSetpoint,
  {0662a2d2-2210-4218-9087-e219f4692779}, !- Handle
  conditioned space temperature setpoint, !- Name
  {954c8ca1-6281-4a6a-a366-3cca84f35e70}, !- Heating Setpoint Temperature Schedule Name
  {d8042453-a949-4678-8ab3-0829c4951460}, !- Cooling Setpoint Temperature Schedule Name
  0;                                      !- Temperature Difference Between Cutout And Setpoint {deltaC}

OS:ScheduleTypeLimits,
  {bc98a751-0f0e-42b7-8dec-b6c0e317dc78}, !- Handle
  Temperature,                            !- Name
  ,                                       !- Lower Limit Value
  ,                                       !- Upper Limit Value
  Continuous,                             !- Numeric Type
  Temperature;                            !- Unit Type

OS:Surface,
  {49da49ed-775b-439d-b1b9-57c46daa1b6c}, !- Handle
  Roof1,                                  !- Name
  RoofCeiling,                            !- Surface Type
  {5c3b24c3-3cf7-496c-b6e2-2993ad895673}, !- Construction Name
  {e0670585-4be7-411b-b7ed-656058fad94d}, !- Space Name
  Outdoors,                               !- Outside Boundary Condition
  ,                                       !- Outside Boundary Condition Object
  SunExposed,                             !- Sun Exposure
  WindExposed,                            !- Wind Exposure
  ,                                       !- View Factor to Ground
  ,                                       !- Number of Vertices
  -8.42346109387347, 8.42346109387347, 3.048, !- X,Y,Z Vertex 1 {m}
  -8.42346109387347, -8.42346109387347, 3.048, !- X,Y,Z Vertex 2 {m}
  8.42346109387347, -8.42346109387347, 3.048, !- X,Y,Z Vertex 3 {m}
  8.42346109387347, 8.42346109387347, 3.048; !- X,Y,Z Vertex 4 {m}

OS:AdditionalProperties,
  {f187f001-f9d5-490d-a28f-797f764792b3}, !- Handle
  {49da49ed-775b-439d-b1b9-57c46daa1b6c}, !- Object Name
  Length,                                 !- Feature Name 1
  Double,                                 !- Feature Data Type 1
  55.27205442174192,                      !- Feature Value 1
  Width,                                  !- Feature Name 2
  Double,                                 !- Feature Data Type 2
  55.272054421741913,                     !- Feature Value 2
  Azimuth,                                !- Feature Name 3
  Integer,                                !- Feature Data Type 3
  0,                                      !- Feature Value 3
  Tilt,                                   !- Feature Name 4
  Double,                                 !- Feature Data Type 4
  0,                                      !- Feature Value 4
  SurfaceType,                            !- Feature Name 5
  String,                                 !- Feature Data Type 5
  Roof;                                   !- Feature Value 5

OS:Material,
  {85503d37-e952-42aa-927a-e2f1d9cf7342}, !- Handle
  asphalt or fiberglass shingles,         !- Name
  Rough,                                  !- Roughness
  0.00635,                                !- Thickness {m}
  0.162714,                               !- Conductivity {W/m-K}
  1121.4,                                 !- Density {kg/m3}
  1465.45,                                !- Specific Heat {J/kg-K}
  0.9,                                    !- Thermal Absorptance
  0.85,                                   !- Solar Absorptance
  0.85;                                   !- Visible Absorptance

OS:Material,
  {7eb22c73-d105-4716-aca7-4017287872d7}, !- Handle
  roof stud and cavity,                   !- Name
  Rough,                                  !- Roughness
  0.0889,                                 !- Thickness {m}
  0.491900632004487,                      !- Conductivity {W/m-K}
  50.32683,                               !- Density {kg/m3}
  1063.80987585548,                       !- Specific Heat {J/kg-K}
  0.9,                                    !- Thermal Absorptance
  0.7,                                    !- Solar Absorptance
  0.7;                                    !- Visible Absorptance

OS:Material,
  {78bc7399-1810-4411-9d73-0c52e6afad19}, !- Handle
  gypsum board,                           !- Name
  Rough,                                  !- Roughness
  0.00254,                                !- Thickness {m}
  0.1602906,                              !- Conductivity {W/m-K}
  801,                                    !- Density {kg/m3}
  837.4,                                  !- Specific Heat {J/kg-K}
  0.9,                                    !- Thermal Absorptance
  0.6,                                    !- Solar Absorptance
  0.6;                                    !- Visible Absorptance

OS:Construction,
  {5c3b24c3-3cf7-496c-b6e2-2993ad895673}, !- Handle
  Roof1 construction,                     !- Name
  ,                                       !- Surface Rendering Name
  {85503d37-e952-42aa-927a-e2f1d9cf7342}, !- Layer 1
  {7eb22c73-d105-4716-aca7-4017287872d7}, !- Layer 2
  {78bc7399-1810-4411-9d73-0c52e6afad19}; !- Layer 3

OS:Surface,
  {4122b573-7645-45eb-9263-b1e64557c178}, !- Handle
  Wall1,                                  !- Name
  Wall,                                   !- Surface Type
  {699db8ad-0cf9-4801-8eb0-086f52339083}, !- Construction Name
  {e0670585-4be7-411b-b7ed-656058fad94d}, !- Space Name
  Outdoors,                               !- Outside Boundary Condition
  ,                                       !- Outside Boundary Condition Object
  SunExposed,                             !- Sun Exposure
  WindExposed,                            !- Wind Exposure
  ,                                       !- View Factor to Ground
  ,                                       !- Number of Vertices
  -13.6265098242187, 15.6365136527044, 0.6096, !- X,Y,Z Vertex 1 {m}
  -13.6265098242187, 15.6365136527044, 3.048, !- X,Y,Z Vertex 2 {m}
  5.90736017578134, 15.6365136527044, 3.048, !- X,Y,Z Vertex 3 {m}
  5.90736017578134, 15.6365136527044, 0.6096; !- X,Y,Z Vertex 4 {m}

OS:AdditionalProperties,
  {134d3112-214c-4e35-a254-78c616ff86c5}, !- Handle
  {4122b573-7645-45eb-9263-b1e64557c178}, !- Object Name
  Length,                                 !- Feature Name 1
  Double,                                 !- Feature Data Type 1
  64.087499999999991,                     !- Feature Value 1
  Azimuth,                                !- Feature Name 2
  Integer,                                !- Feature Data Type 2
  0,                                      !- Feature Value 2
  Tilt,                                   !- Feature Name 3
  Double,                                 !- Feature Data Type 3
  90,                                     !- Feature Value 3
  SurfaceType,                            !- Feature Name 4
  String,                                 !- Feature Data Type 4
  Wall;                                   !- Feature Value 4

OS:Material,
  {3f13ceb3-ecf8-4a28-9b12-1206e85af997}, !- Handle
  wood siding,                            !- Name
  Rough,                                  !- Roughness
  0.0254,                                 !- Thickness {m}
  0.1024175,                              !- Conductivity {W/m-K}
  544.68,                                 !- Density {kg/m3}
  1172.36,                                !- Specific Heat {J/kg-K}
  0.9,                                    !- Thermal Absorptance
  0.7,                                    !- Solar Absorptance
  0.7;                                    !- Visible Absorptance

OS:Material,
  {e6b73882-bc3e-410b-989e-e8d500552c8b}, !- Handle
  osb sheathing 0.5 in.,                  !- Name
  Rough,                                  !- Roughness
  0.0127,                                 !- Thickness {m}
  0.1154577,                              !- Conductivity {W/m-K}
  512.64,                                 !- Density {kg/m3}
  1214.23,                                !- Specific Heat {J/kg-K}
  0.9,                                    !- Thermal Absorptance
  0.7,                                    !- Solar Absorptance
  0.7;                                    !- Visible Absorptance

OS:Material,
  {35f425b4-76cb-4fe8-af53-0c5e24c9cf0e}, !- Handle
  wall stud and cavity,                   !- Name
  Rough,                                  !- Roughness
  0.1397,                                 !- Thickness {m}
  0.0929021674204099,                     !- Conductivity {W/m-K}
  139.0536,                               !- Density {kg/m3}
  1170.23755760369,                       !- Specific Heat {J/kg-K}
  0.9,                                    !- Thermal Absorptance
  0.7,                                    !- Solar Absorptance
  0.7;                                    !- Visible Absorptance

OS:Material,
  {941e1fe9-38df-46d0-a1ba-3d23f631242c}, !- Handle
  gypsum board 1,                         !- Name
  Rough,                                  !- Roughness
  0.0127,                                 !- Thickness {m}
  0.1602906,                              !- Conductivity {W/m-K}
  801,                                    !- Density {kg/m3}
  837.4,                                  !- Specific Heat {J/kg-K}
  0.9,                                    !- Thermal Absorptance
  0.6,                                    !- Solar Absorptance
  0.6;                                    !- Visible Absorptance

OS:Construction,
  {699db8ad-0cf9-4801-8eb0-086f52339083}, !- Handle
  Wall1 construction,                     !- Name
  ,                                       !- Surface Rendering Name
  {3f13ceb3-ecf8-4a28-9b12-1206e85af997}, !- Layer 1
  {e6b73882-bc3e-410b-989e-e8d500552c8b}, !- Layer 2
  {35f425b4-76cb-4fe8-af53-0c5e24c9cf0e}, !- Layer 3
  {941e1fe9-38df-46d0-a1ba-3d23f631242c}; !- Layer 4

OS:Surface,
  {d31a242c-c000-471d-acc6-5ad543e5e87b}, !- Handle
  Wall2,                                  !- Name
  Wall,                                   !- Surface Type
  {d0e09b44-a33a-4fe0-adde-518f0672162b}, !- Construction Name
  {e0670585-4be7-411b-b7ed-656058fad94d}, !- Space Name
  Outdoors,                               !- Outside Boundary Condition
  ,                                       !- Outside Boundary Condition Object
  SunExposed,                             !- Sun Exposure
  WindExposed,                            !- Wind Exposure
  ,                                       !- View Factor to Ground
  ,                                       !- Number of Vertices
  15.6365136527044, -0.538581714242879, 0.6096, !- X,Y,Z Vertex 1 {m}
  15.6365136527044, -0.538581714242879, 3.048, !- X,Y,Z Vertex 2 {m}
  15.6365136527044, -10.3074217142429, 3.048, !- X,Y,Z Vertex 3 {m}
  15.6365136527044, -10.3074217142429, 0.6096; !- X,Y,Z Vertex 4 {m}

OS:AdditionalProperties,
  {bc5b8c16-8989-488e-869d-42ea30e2177e}, !- Handle
  {d31a242c-c000-471d-acc6-5ad543e5e87b}, !- Object Name
  Length,                                 !- Feature Name 1
  Double,                                 !- Feature Data Type 1
  32.049999999999997,                     !- Feature Value 1
  Azimuth,                                !- Feature Name 2