
OS:Version,
  {bd2dfc0d-b8cf-4a9e-9ce2-3cebbc890fe0}, !- Handle
  3.10.0;                                 !- Version Identifier

OS:SimulationControl,
  {08bf80a9-0d25-49a3-ad1b-5eca25dd306f}, !- Handle
  ,                                       !- Do Zone Sizing Calculation
  ,                                       !- Do System Sizing Calculation
  ,                                       !- Do Plant Sizing Calculation
  No;                                     !- Run Simulation for Sizing Periods

OS:Timestep,
  {8e23f5b7-87be-4ceb-b02d-d8dc448fa93f}, !- Handle
  1;                                      !- Number of Timesteps per Hour

OS:ShadowCalculation,
  {e603b4d3-9966-4efe-9b03-746ea49d43f0}, !- Handle
  PolygonClipping,                        !- Shading Calculation Method
  ,                                       !- Shading Calculation Update Frequency Method
  20,                                     !- Shading Calculation Update Frequency
  200,                                    !- Maximum Figures in Shadow Overlap Calculations
  ,                                       !- Polygon Clipping Algorithm
  512,                                    !- Pixel Counting Resolution
  ,                                       !- Sky Diffuse Modeling Algorithm
  No,                                     !- Output External Shading Calculation Results
  No,                                     !- Disable Self-Shading Within Shading Zone Groups
  No;                                     !- Disable Self-Shading From Shading Zone Groups to Other Zones

OS:SurfaceConvectionAlgorithm:Outside,
  {1037f51f-f264-49b5-a9dc-1e659d928943}, !- Handle
  DOE-2;                                  !- Algorithm

OS:SurfaceConvectionAlgorithm:Inside,
  {fa1b40f1-cd8d-4df1-b519-151460bc3e70}, !- Handle
  TARP;                                   !- Algorithm

OS:ZoneCapacitanceMultiplier:ResearchSpecial,
  {6f31fced-0af3-45d4-a44b-198cfdc60b50}, !- Handle
  7,                                      !- Temperature Capacity Multiplier
  15,                                     !- Humidity Capacity Multiplier
  ;                                       !- Carbon Dioxide Capacity Multiplier

OS:ConvergenceLimits,
  {78144e9f-f6dd-46ba-ab04-0d7f805a6086}, !- Handle
  0;                                      !- Minimum System Timestep {minutes}

OS:RunPeriod,
  {d2c05dcb-f52b-495d-baae-b33c81d84da4}, !- Handle
  Run Period 1,                           !- Name
  1,                                      !- Begin Month
  1,                                      !- Begin Day of Month
  12,                                     !- End Month
  31,                                     !- End Day of Month
  ,                                       !- Use Weather File Holidays and Special Days
  ,                                       !- Use Weather File Daylight Saving Period
  ,                                       !- Apply Weekend Holiday Rule
  ,                                       !- Use Weather File Rain Indicators
  ,                                       !- Use Weather File Snow Indicators
  ;                                       !- Number of Times Runperiod to be Repeated

OS:PerformancePrecisionTradeoffs,
  {9fc60bed-e2e3-4fe3-81c2-31c4496fef1e}, !- Handle
  ,                                       !- Use Coil Direct Solutions
  CarrollMRT;                             !- Zone Radiant Exchange Algorithm

OS:WeatherFile,
  {6942ba4e-ca54-46c2-a844-bedd2836355a}, !- Handle
  Buffalo Niagara Intl Ap,                !- City
  NY,                                     !- State Province Region
  USA,                                    !- Country
  TMY3,                                   !- Data Source
  725280,                                 !- WMO Number
  42.93,                                  !- Latitude {deg}
  -78.73,                                 !- Longitude {deg}
  -5,                                     !- Time Zone {hr}
  215,                                    !- Elevation {m}
  /Users/nmoore/github/urbanopt-example-geojson-project/example_project/weather/USA_NY_Buffalo-Greater.Buffalo.Intl.AP.725280_TMY3.epw, !- Url
  6B50E0FF,                               !- Checksum
  ,                                       !- Start Date Actual Year
  Sunday;                                 !- Start Day of Week

OS:YearDescription,
  {926d6ad0-f925-426e-9d6e-6d7cfba749b7}, !- Handle
  2007,                                   !- Calendar Year
  ,                                       !- Day of Week for Start Day
  ;                                       !- Is Leap Year

OS:Site,
  {79a12c36-60b1-4b23-a3c9-bf6fff6f6037}, !- Handle
  Buffalo Niagara Intl Ap_NY,             !- Name
  42.93,                                  !- Latitude {deg}
  -78.73,                                 !- Longitude {deg}
  -5,                                     !- Time Zone {hr}
  215,                                    !- Elevation {m}
  Suburbs,                                !- Terrain
  Yes;                                    !- Keep Site Location Information

OS:RunPeriodControl:DaylightSavingTime,
  {e68ed534-e165-4820-92d6-4f55ea4c3437}, !- Handle
  Mar 12,                                 !- Start Date
  Nov 5;                                  !- End Date

OS:Site:GroundTemperature:Shallow,
  {c793876b-1041-44b4-b48d-21253b95c8ab}, !- Handle
  4.30207395723828,                       !- January Surface Ground Temperature {C}
  2.29327249652502,                       !- February Surface Ground Temperature {C}
  2.13240047156047,                       !- March Surface Ground Temperature {C}
  3.08567940719286,                       !- April Surface Ground Temperature {C}
  6.91256312497526,                       !- May Surface Ground Temperature {C}
  10.7216195949507,                       !- June Surface Ground Temperature {C}
  14.0238679822574,                       !- July Surface Ground Temperature {C}
  16.1157611184724,                       !- August Surface Ground Temperature {C}
  16.2934789303462,                       !- September Surface Ground Temperature {C}
  14.5920754632847,                       !- October Surface Ground Temperature {C}
  11.374036348653,                        !- November Surface Ground Temperature {C}
  7.68182621661674;                       !- December Surface Ground Temperature {C}

OS:ThermalZone,
  {e0f1fe80-5dbd-46ad-b3aa-90585845b108}, !- Handle
  conditioned space,                      !- Name
  1,                                      !- Multiplier
  ,                                       !- Ceiling Height {m}
  692.06373070848,                        !- Volume {m3}
  ,                                       !- Floor Area {m2}
  ,                                       !- Zone Inside Convection Algorithm
  ,                                       !- Zone Outside Convection Algorithm
  ,                                       !- Zone Conditioning Equipment List Name
  {10834cf1-9f62-4661-abbe-695b1728ef96}, !- Zone Air Inlet Port List
  {7b32176e-74a6-4b2d-9f82-888db6fc8174}, !- Zone Air Exhaust Port List
  {8c83b4f9-036e-42c2-84e2-77fab7180435}, !- Zone Air Node Name
  {8281a42d-b83c-4aec-9512-a1551d95527d}, !- Zone Return Air Port List
  ,                                       !- Primary Daylighting Control Name
  ,                                       !- Fraction of Zone Controlled by Primary Daylighting Control
  ,                                       !- Secondary Daylighting Control Name
  ,                                       !- Fraction of Zone Controlled by Secondary Daylighting Control
  ,                                       !- Illuminance Map Name
  ,                                       !- Group Rendering Name
  {d65cd541-1c45-486d-a892-9f4a1d4bc92d}, !- Thermostat Name
  No;                                     !- Use Ideal Air Loads

OS:Node,
  {73abd0b5-a852-49d4-8922-b88a7f64d3cd}, !- Handle
  Node 1,                                 !- Name
  {8c83b4f9-036e-42c2-84e2-77fab7180435}, !- Inlet Port
  ;                                       !- Outlet Port

OS:Connection,
  {8c83b4f9-036e-42c2-84e2-77fab7180435}, !- Handle
  {e0f1fe80-5dbd-46ad-b3aa-90585845b108}, !- Source Object
  11,                                     !- Outlet Port
  {73abd0b5-a852-49d4-8922-b88a7f64d3cd}, !- Target Object
  2;                                      !- Inlet Port

OS:PortList,
  {10834cf1-9f62-4661-abbe-695b1728ef96}, !- Handle
  {e0f1fe80-5dbd-46ad-b3aa-90585845b108}, !- HVAC Component
  {f1d2b1ee-8e31-4e65-88c5-8269978ed801}; !- Port 1

OS:PortList,
  {7b32176e-74a6-4b2d-9f82-888db6fc8174}, !- Handle
  {e0f1fe80-5dbd-46ad-b3aa-90585845b108}; !- HVAC Component

OS:PortList,
  {8281a42d-b83c-4aec-9512-a1551d95527d}, !- Handle
  {e0f1fe80-5dbd-46ad-b3aa-90585845b108}, !- HVAC Component
  {1735c038-a36f-4131-9c89-4dd1ab8e949f}; !- Port 1

OS:Sizing:Zone,
  {3d9e84f4-8a26-4e1e-bbe7-5d2dd5c584cb}, !- Handle
  {e0f1fe80-5dbd-46ad-b3aa-90585845b108}, !- Zone or ZoneList Name
  SupplyAirTemperature,                   !- Zone Cooling Design Supply Air Temperature Input Method
  14,                                     !- Zone Cooling Design Supply Air Temperature {C}
  11.11,                                  !- Zone Cooling Design Supply Air Temperature Difference {deltaC}
  SupplyAirTemperature,                   !- Zone Heating Design Supply Air Temperature Input Method
  40,                                     !- Zone Heating Design Supply Air Temperature {C}
  11.11,                                  !- Zone Heating Design Supply Air Temperature Difference {deltaC}
  0.0085,                                 !- Zone Cooling Design Supply Air Humidity Ratio {kg-H2O/kg-air}
  0.008,                                  !- Zone Heating Design Supply Air Humidity Ratio {kg-H2O/kg-air}
  ,                                       !- Zone Heating Sizing Factor
  ,                                       !- Zone Cooling Sizing Factor
  DesignDay,                              !- Cooling Design Air Flow Method
  ,                                       !- Cooling Design Air Flow Rate {m3/s}
  ,                                       !- Cooling Minimum Air Flow per Zone Floor Area {m3/s-m2}
  ,                                       !- Cooling Minimum Air Flow {m3/s}
  ,                                       !- Cooling Minimum Air Flow Fraction
  DesignDay,                              !- Heating Design Air Flow Method
  ,                                       !- Heating Design Air Flow Rate {m3/s}
  ,                                       !- Heating Maximum Air Flow per Zone Floor Area {m3/s-m2}
  ,                                       !- Heating Maximum Air Flow {m3/s}
  ,                                       !- Heating Maximum Air Flow Fraction
  No,                                     !- Account for Dedicated Outdoor Air System
  NeutralSupplyAir,                       !- Dedicated Outdoor Air System Control Strategy
  autosize,                               !- Dedicated Outdoor Air Low Setpoint Temperature for Design {C}
  autosize,                               !- Dedicated Outdoor Air High Setpoint Temperature for Design {C}
  Sensible Load Only No Latent Load,      !- Zone Load Sizing Method
  HumidityRatioDifference,                !- Zone Latent Cooling Design Supply Air Humidity Ratio Input Method
  ,                                       !- Zone Dehumidification Design Supply Air Humidity Ratio {kgWater/kgDryAir}
  0.005,                                  !- Zone Cooling Design Supply Air Humidity Ratio Difference {kgWater/kgDryAir}
  HumidityRatioDifference,                !- Zone Latent Heating Design Supply Air Humidity Ratio Input Method
  ,                                       !- Zone Humidification Design Supply Air Humidity Ratio {kgWater/kgDryAir}
  0.005,                                  !- Zone Humidification Design Supply Air Humidity Ratio Difference {kgWater/kgDryAir}
  ,                                       !- Zone Humidistat Dehumidification Set Point Schedule Name
  ,                                       !- Zone Humidistat Humidification Set Point Schedule Name
  ,                                       !- Design Zone Air Distribution Effectiveness in Cooling Mode
  ,                                       !- Design Zone Air Distribution Effectiveness in Heating Mode
  ,                                       !- Design Zone Secondary Recirculation Fraction {dimensionless}
  ,                                       !- Design Minimum Zone Ventilation Efficiency {dimensionless}
  Coincident;                             !- Sizing Option

OS:ZoneHVAC:EquipmentList,
  {afad5656-46e2-4bed-8ec0-35316830d73c}, !- Handle
  Zone HVAC Equipment List 1,             !- Name
  {e0f1fe80-5dbd-46ad-b3aa-90585845b108}, !- Thermal Zone
  ,                                       !- Load Distribution Scheme
  {874ae304-b7a8-4ab3-9b4a-47ee1766aedd}, !- Zone Equipment 1
  1,                                      !- Zone Equipment Cooling Sequence 1
  1,                                      !- Zone Equipment Heating or No-Load Sequence 1
  {6df7b94a-d9c1-4527-9bf9-c0546da28359}, !- Zone Equipment Sequential Cooling Fraction Schedule Name 1
  {998904ab-83b1-403e-a763-13e9430fd4f4}; !- Zone Equipment Sequential Heating Fraction Schedule Name 1

OS:AdditionalProperties,
  {3858bbd7-ae1f-4b23-af8b-f30e10d03ca1}, !- Handle
  {e0f1fe80-5dbd-46ad-b3aa-90585845b108}, !- Object Name
  ObjectType,                             !- Feature Name 1
  String,                                 !- Feature Data Type 1
  conditioned space;                      !- Feature Value 1

OS:Space,
  {1df81192-208f-439e-b2e2-c246c04f3c15}, !- Handle
  conditioned space 1,                    !- Name
  ,                                       !- Space Type Name
  ,                                       !- Default Construction Set Name
  ,                                       !- Default Schedule Set Name
  ,                                       !- Direction of Relative North {deg}
  ,                                       !- X Origin {m}
  ,                                       !- Y Origin {m}
  ,                                       !- Z Origin {m}
  ,                                       !- Building Story Name
  {e0f1fe80-5dbd-46ad-b3aa-90585845b108}, !- Thermal Zone Name
  ,                                       !- Part of Total Floor Area
  ,                                       !- Design Specification Outdoor Air Object Name
  ,                                       !- Building Unit Name
  692.06373070848;                        !- Volume {m3}

OS:Schedule:Ruleset,
  {d770114c-7180-4e9e-89b4-7c6a0a01d95e}, !- Handle
  heating setpoint,                       !- Name
  {22069d6e-7404-446f-82f0-ba591c2b9f14}, !- Schedule Type Limits Name
  {4774be0d-eff4-4105-ad65-e40a8434ea3d}; !- Default Day Schedule Name

OS:Schedule:Day,
  {4774be0d-eff4-4105-ad65-e40a8434ea3d}, !- Handle
  heating setpoint default day,           !- Name
  {22069d6e-7404-446f-82f0-ba591c2b9f14}, !- Schedule Type Limits Name
  ,                                       !- Interpolate to Timestep
  24,                                     !- Hour 1
  0,                                      !- Minute 1
  0;                                      !- Value Until Time 1

OS:Schedule:Rule,
  {c034c93a-e17c-410a-82f0-302fe60341e6}, !- Handle
  heating setpoint allday rule,           !- Name
  {d770114c-7180-4e9e-89b4-7c6a0a01d95e}, !- Schedule Ruleset Name
  0,                                      !- Rule Order
  {2a983910-95ee-4dbd-bfea-45b41d1e06ac}, !- Day Schedule Name
  Yes,                                    !- Apply Sunday
  Yes,                                    !- Apply Monday
  Yes,                                    !- Apply Tuesday
  Yes,                                    !- Apply Wednesday
  Yes,                                    !- Apply Thursday
  Yes,                                    !- Apply Friday
  Yes,                                    !- Apply Saturday
  DateRange,                              !- Date Specification Type
  1,                                      !- Start Month
  1,                                      !- Start Day
  12,                                     !- End Month
  31;                                     !- End Day

OS:Schedule:Day,
  {2a983910-95ee-4dbd-bfea-45b41d1e06ac}, !- Handle
  heating setpoint day,                   !- Name
  {22069d6e-7404-446f-82f0-ba591c2b9f14}, !- Schedule Type Limits Name
  ,                                       !- Interpolate to Timestep
  24,                                     !- Hour 1
  0,                                      !- Minute 1
  20;                                     !- Value Until Time 1

OS:Schedule:Ruleset,
  {4988ce39-f708-4eb3-a776-a5b5b84230c0}, !- Handle
  cooling setpoint,                       !- Name
  {22069d6e-7404-446f-82f0-ba591c2b9f14}, !- Schedule Type Limits Name
  {06f88fc7-87b8-4f91-93c6-2dce04360c65}; !- Default Day Schedule Name

OS:Schedule:Day,
  {06f88fc7-87b8-4f91-93c6-2dce04360c65}, !- Handle
  cooling setpoint default day,           !- Name
  {22069d6e-7404-446f-82f0-ba591c2b9f14}, !- Schedule Type Limits Name
  ,                                       !- Interpolate to Timestep
  24,                                     !- Hour 1
  0,                                      !- Minute 1
  0;                                      !- Value Until Time 1

OS:Schedule:Rule,
  {916d962b-df27-4028-bdce-901c11307423}, !- Handle
  cooling setpoint allday rule,           !- Name
  {4988ce39-f708-4eb3-a776-a5b5b84230c0}, !- Schedule Ruleset Name
  0,                                      !- Rule Order
  {484deb4c-2ae3-46f3-9b8a-f22a1319cdeb}, !- Day Schedule Name
  Yes,                                    !- Apply Sunday
  Yes,                                    !- Apply Monday
  Yes,                                    !- Apply Tuesday
  Yes,                                    !- Apply Wednesday
  Yes,                                    !- Apply Thursday
  Yes,                                    !- Apply Friday
  Yes,                                    !- Apply Saturday
  DateRange,                              !- Date Specification Type
  1,                                      !- Start Month
  1,                                      !- Start Day
  12,                                     !- End Month
  31;                                     !- End Day

OS:Schedule:Day,
  {484deb4c-2ae3-46f3-9b8a-f22a1319cdeb}, !- Handle
  cooling setpoint day,                   !- Name
  {22069d6e-7404-446f-82f0-ba591c2b9f14}, !- Schedule Type Limits Name
  ,                                       !- Interpolate to Timestep
  24,                                     !- Hour 1
  0,                                      !- Minute 1
  25.5555555555556;                       !- Value Until Time 1

OS:ThermostatSetpoint:DualSetpoint,
  {d65cd541-1c45-486d-a892-9f4a1d4bc92d}, !- Handle
  conditioned space temperature setpoint, !- Name
  {d770114c-7180-4e9e-89b4-7c6a0a01d95e}, !- Heating Setpoint Temperature Schedule Name
  {4988ce39-f708-4eb3-a776-a5b5b84230c0}, !- Cooling Setpoint Temperature Schedule Name
  0;                                      !- Temperature Difference Between Cutout And Setpoint {deltaC}

OS:ScheduleTypeLimits,
  {22069d6e-7404-446f-82f0-ba591c2b9f14}, !- Handle
  Temperature,                            !- Name
  ,                                       !- Lower Limit Value
  ,                                       !- Upper Limit Value
  Continuous,                             !- Numeric Type
  Temperature;                            !- Unit Type

OS:Surface,
  {a829b9b6-6668-4351-9445-49c2db10dc55}, !- Handle
  Roof1,                                  !- Name
  RoofCeiling,                            !- Surface Type
  {d9a698e1-bb40-4447-8526-cf075556dd3a}, !- Construction Name
  {37de9974-2b67-4949-82fd-22e297255d1d}, !- Space Name
  Outdoors,                               !- Outside Boundary Condition
  ,                                       !- Outside Boundary Condition Object
  SunExposed,                             !- Sun Exposure
  WindExposed,                            !- Wind Exposure
  ,                                       !- View Factor to Ground
  ,                                       !- Number of Vertices
  -26.9347048849634, 58.0557891618865, 2.4384, !- X,Y,Z Vertex 1 {m}
  -26.9347048849634, 46.7895631136661, 8.0715130241102, !- X,Y,Z Vertex 2 {m}
  -14.3386812381136, 46.7895631136661, 8.0715130241102, !- X,Y,Z Vertex 3 {m}
  -14.3386812381136, 58.0557891618865, 2.4384; !- X,Y,Z Vertex 4 {m}

OS:AdditionalProperties,
  {9abbd07f-078b-4381-9a68-c2acfaba1d2b}, !- Handle
  {a829b9b6-6668-4351-9445-49c2db10dc55}, !- Object Name
  Length,                                 !- Feature Name 1
  Double,                                 !- Feature Data Type 1
  41.325536899113608,                     !- Feature Value 1
  Width,                                  !- Feature Name 2
  Double,                                 !- Feature Data Type 2
  41.325536899113601,                     !- Feature Value 2
  Azimuth,                                !- Feature Name 3
  Integer,                                !- Feature Data Type 3
  0,                                      !- Feature Value 3
  Tilt,                                   !- Feature Name 4
  Double,                                 !- Feature Data Type 4
  0.5,                                    !- Feature Value 4
  SurfaceType,                            !- Feature Name 5
  String,                                 !- Feature Data Type 5
  Roof;                                   !- Feature Value 5

OS:ThermalZone,
  {ee6e7746-93de-4d39-be2e-0af6b4f1b155}, !- Handle
  attic - vented,                         !- Name
  1,                                      !- Multiplier
  ,                                       !- Ceiling Height {m}
  356.390921899745,                       !- Volume {m3}
  ,                                       !- Floor Area {m2}
  ,                                       !- Zone Inside Convection Algorithm
  ,                                       !- Zone Outside Convection Algorithm
  ,                                       !- Zone Conditioning Equipment List Name
  {bc8515a7-00a5-49b0-845b-744009887b5c}, !- Zone Air Inlet Port List
  {8c4eab4e-ec7f-4147-bf42-d356f3220e5b}, !- Zone Air Exhaust Port List
  {2243cfc4-bf92-4102-b2b9-26860a997024}, !- Zone Air Node Name
  {a7980e6c-b1d9-43a1-bce7-700fdaf8f1f9}, !- Zone Return Air Port List
  ,                                       !- Primary Daylighting Control Name
  ,                                       !- Fraction of Zone Controlled by Primary Daylighting Control
  ,                                       !- Secondary Daylighting Control Name
  ,                                       !- Fraction of Zone Controlled by Secondary Daylighting Control
  ,                                       !- Illuminance Map Name
  ,                                       !- Group Rendering Name
  ,                                       !- Thermostat Name
  No;                                     !- Use Ideal Air Loads

OS:Node,
  {cd386b3a-4654-40f8-a4cf-e8ce44950b04}, !- Handle
  Node 2,                                 !- Name
  {2243cfc4-bf92-4102-b2b9-26860a997024}, !- Inlet Port
  ;                                       !- Outlet Port

OS:Connection,
  {2243cfc4-bf92-4102-b2b9-26860a997024}, !- Handle
  {ee6e7746-93de-4d39-be2e-0af6b4f1b155}, !- Source Object
  11,                                     !- Outlet Port
  {cd386b3a-4654-40f8-a4cf-e8ce44950b04}, !- Target Object
  2;                                      !- Inlet Port

OS:PortList,
  {bc8515a7-00a5-49b0-845b-744009887b5c}, !- Handle
  {ee6e7746-93de-4d39-be2e-0af6b4f1b155}; !- HVAC Component

OS:PortList,
  {8c4eab4e-ec7f-4147-bf42-d356f3220e5b}, !- Handle
  {ee6e7746-93de-4d39-be2e-0af6b4f1b155}; !- HVAC Component

OS:PortList,
  {a7980e6c-b1d9-43a1-bce7-700fdaf8f1f9}, !- Handle
  {ee6e7746-93de-4d39-be2e-0af6b4f1b155}; !- HVAC Component

OS:Sizing:Zone,
  {3b0ee949-b192-4d0f-9e5c-8d0e0a71a6eb}, !- Handle
  {ee6e7746-93de-4d39-be2e-0af6b4f1b155}, !- Zone or ZoneList Name
  SupplyAirTemperature,                   !- Zone Cooling Design Supply Air Temperature Input Method
  14,                                     !- Zone Cooling Design Supply Air Temperature {C}
  11.11,                                  !- Zone Cooling Design Supply Air Temperature Difference {deltaC}
  SupplyAirTemperature,                   !- Zone Heating Design Supply Air Temperature Input Method
  40,                                     !- Zone Heating Design Supply Air Temperature {C}
  11.11,                                  !- Zone Heating Design Supply Air Temperature Difference {deltaC}
  0.0085,                                 !- Zone Cooling Design Supply Air Humidity Ratio {kg-H2O/kg-air}
  0.008,                                  !- Zone Heating Design Supply Air Humidity Ratio {kg-H2O/kg-air}
  ,                                       !- Zone Heating Sizing Factor
  ,                                       !- Zone Cooling Sizing Factor
  DesignDay,                              !- Cooling Design Air Flow Method
  ,                                       !- Cooling Design Air Flow Rate {m3/s}
  ,                                       !- Cooling Minimum Air Flow per Zone Floor Area {m3/s-m2}
  ,                                       !- Cooling Minimum Air Flow {m3/s}
  ,                                       !- Cooling Minimum Air Flow Fraction
  DesignDay,                              !- Heating Design Air Flow Method
  ,                                       !- Heating Design Air Flow Rate {m3/s}
  ,                                       !- Heating Maximum Air Flow per Zone Floor Area {m3/s-m2}
  ,                                       !- Heating Maximum Air Flow {m3/s}
  ,                                       !- Heating Maximum Air Flow Fraction
  No,                                     !- Account for Dedicated Outdoor Air System
  NeutralSupplyAir,                       !- Dedicated Outdoor Air System Control Strategy
  autosize,                               !- Dedicated Outdoor Air Low Setpoint Temperature for Design {C}
  autosize,                               !- Dedicated Outdoor Air High Setpoint Temperature for Design {C}
  Sensible Load Only No Latent Load,      !- Zone Load Sizing Method
  HumidityRatioDifference,                !- Zone Latent Cooling Design Supply Air Humidity Ratio Input Method
  ,                                       !- Zone Dehumidification Design Supply Air Humidity Ratio {kgWater/kgDryAir}
  0.005,                                  !- Zone Cooling Design Supply Air Humidity Ratio Difference {kgWater/kgDryAir}
  HumidityRatioDifference,                !- Zone Latent Heating Design Supply Air Humidity Ratio Input Method
  ,                                       !- Zone Humidification Design Supply Air Humidity Ratio {kgWater/kgDryAir}
  0.005,                                  !- Zone Humidification Design Supply Air Humidity Ratio Difference {kgWater/kgDryAir}
  ,                                       !- Zone Humidistat Dehumidification Set Point Schedule Name
  ,                                       !- Zone Humidistat Humidification Set Point Schedule Name
  ,                                       !- Design Zone Air Distribution Effectiveness in Cooling Mode
  ,                                       !- Design Zone Air Distribution Effectiveness in Heating Mode
  ,                                       !- Design Zone Secondary Recirculation Fraction {dimensionless}
  ,                                       !- Design Minimum Zone Ventilation Efficiency {dimensionless}
  Coincident;                             !- Sizing Option

OS:ZoneHVAC:EquipmentList,
  {8b8a4a95-afdc-497d-922b-5810732564d2}, !- Handle
  Zone HVAC Equipment List 2,             !- Name
  {ee6e7746-93de-4d39-be2e-0af6b4f1b155}; !- Thermal Zone

OS:AdditionalProperties,
  {5157bb49-93ab-4649-996c-afe3fe971630}, !- Handle
  {ee6e7746-93de-4d39-be2e-0af6b4f1b155}, !- Object Name
  ObjectType,                             !- Feature Name 1
  String,                                 !- Feature Data Type 1
  attic - vented;                         !- Feature Value 1

OS:Space,
  {37de9974-2b67-4949-82fd-22e297255d1d}, !- Handle
  attic - vented 1,                       !- Name
  ,                                       !- Space Type Name
  ,                                       !- Default Construction Set Name
  ,                                       !- Default Schedule Set Name
  ,                                       !- Direction of Relative North {deg}
  ,                                       !- X Origin {m}
  ,                                       !- Y Origin {m}
  ,                                       !- Z Origin {m}
  ,                                       !- Building Story Name
  {ee6e7746-93de-4d39-be2e-0af6b4f1b155}, !- Thermal Zone Name
  ,                                       !- Part of Total Floor Area
  ,                                       !- Design Specification Outdoor Air Object Name
  ,                                       !- Building Unit Name
  356.390921899745;                       !- Volume {m3}

OS:Material,
  {704cb1cb-9e82-4751-b8aa-1b84c4e9f712}, !- Handle
  asphalt or fiberglass shingles,         !- Name
  Rough,                                  !- Roughness
  0.00635,                                !- Thickness {m}
  0.162714,                               !- Conductivity {W/m-K}
  1121.4,                                 !- Density {kg/m3}
  1465.45,                                !- Specific Heat {J/kg-K}
  0.9,                                    !- Thermal Absorptance
  0.85,                                   !- Solar Absorptance