
OS:Version,
  {e0ef961f-8d0a-4056-873a-681e9dc626d5}, !- Handle
  3.9.0;                                  !- Version Identifier

OS:SimulationControl,
  {b5cc0ac5-395d-44d1-8703-de16aec889cc}, !- Handle
  ,                                       !- Do Zone Sizing Calculation
  ,                                       !- Do System Sizing Calculation
  ,                                       !- Do Plant Sizing Calculation
  No;                                     !- Run Simulation for Sizing Periods

OS:Timestep,
  {72790544-faf5-4b8a-ba2b-3dc5ee197811}, !- Handle
  1;                                      !- Number of Timesteps per Hour

OS:ShadowCalculation,
  {e61a38f0-1855-429e-b5c1-83938a5a6c25}, !- Handle
  PolygonClipping,                        !- Shading Calculation Method
  ,                                       !- Shading Calculation Update Frequency Method
  20,                                     !- Shading Calculation Update Frequency
  200,                                    !- Maximum Figures in Shadow Overlap Calculations
  ,                                       !- Polygon Clipping Algorithm
  512,                                    !- Pixel Counting Resolution
  ,                                       !- Sky Diffuse Modeling Algorithm
  No,                                     !- Output External Shading Calculation Results
  No,                                     !- Disable Self-Shading Within Shading Zone Groups
  No;                                     !- Disable Self-Shading From Shading Zone Groups to Other Zones

OS:SurfaceConvectionAlgorithm:Outside,
  {8faa0d5a-b90a-49cf-a4e2-769b51515222}, !- Handle
  DOE-2;                                  !- Algorithm

OS:SurfaceConvectionAlgorithm:Inside,
  {4d8c1b22-e2a1-4839-bae9-2898cff6f169}, !- Handle
  TARP;                                   !- Algorithm

OS:ZoneCapacitanceMultiplier:ResearchSpecial,
  {e38be40c-3e2b-4052-8bb7-418c2b5ecd87}, !- Handle
  7,                                      !- Temperature Capacity Multiplier
  15,                                     !- Humidity Capacity Multiplier
  ;                                       !- Carbon Dioxide Capacity Multiplier

OS:ConvergenceLimits,
  {552db604-fe42-48b9-af47-89880c0dec63}, !- Handle
  0;                                      !- Minimum System Timestep {minutes}

OS:RunPeriod,
  {a9cfc1bf-c7e0-4ea9-ab77-593c3e18e2ac}, !- Handle
  Run Period 1,                           !- Name
  1,                                      !- Begin Month
  1,                                      !- Begin Day of Month
  12,                                     !- End Month
  31,                                     !- End Day of Month
  ,                                       !- Use Weather File Holidays and Special Days
  ,                                       !- Use Weather File Daylight Saving Period
  ,                                       !- Apply Weekend Holiday Rule
  ,                                       !- Use Weather File Rain Indicators
  ,                                       !- Use Weather File Snow Indicators
  ;                                       !- Number of Times Runperiod to be Repeated

OS:PerformancePrecisionTradeoffs,
  {8d7708c0-436a-4a8f-abe3-216918917154}, !- Handle
  ,                                       !- Use Coil Direct Solutions
  CarrollMRT;                             !- Zone Radiant Exchange Algorithm

OS:WeatherFile,
  {de840166-6ce9-4a11-9397-c2b566a67608}, !- Handle
  Buffalo Niagara Intl Ap,                !- City
  NY,                                     !- State Province Region
  USA,                                    !- Country
  TMY3,                                   !- Data Source
  725280,                                 !- WMO Number
  42.93,                                  !- Latitude {deg}
  -78.73,                                 !- Longitude {deg}
  -5,                                     !- Time Zone {hr}
  215,                                    !- Elevation {m}
  /Users/nmoore/github/urbanopt-example-geojson-project/example_project/weather/USA_NY_Buffalo-Greater.Buffalo.Intl.AP.725280_TMY3.epw, !- Url
  6B50E0FF,                               !- Checksum
  ,                                       !- Start Date Actual Year
  Sunday;                                 !- Start Day of Week

OS:YearDescription,
  {5dc6afce-2026-428e-918b-50345633d291}, !- Handle
  2007,                                   !- Calendar Year
  ,                                       !- Day of Week for Start Day
  ;                                       !- Is Leap Year

OS:Site,
  {4a8e7b64-47bc-4c1c-ac2d-9bc6339bd839}, !- Handle
  Buffalo Niagara Intl Ap_NY,             !- Name
  42.93,                                  !- Latitude {deg}
  -78.73,                                 !- Longitude {deg}
  -5,                                     !- Time Zone {hr}
  215,                                    !- Elevation {m}
  Suburbs,                                !- Terrain
  Yes;                                    !- Keep Site Location Information

OS:RunPeriodControl:DaylightSavingTime,
  {675b3490-59f0-49ee-8b91-a2e069c6b962}, !- Handle
  Mar 12,                                 !- Start Date
  Nov 5;                                  !- End Date

OS:Site:GroundTemperature:Shallow,
  {891108a4-5de1-4c44-aa32-02c13ad789cb}, !- Handle
  4.30207395723828,                       !- January Surface Ground Temperature {C}
  2.29327249652502,                       !- February Surface Ground Temperature {C}
  2.13240047156047,                       !- March Surface Ground Temperature {C}
  3.08567940719286,                       !- April Surface Ground Temperature {C}
  6.91256312497526,                       !- May Surface Ground Temperature {C}
  10.7216195949507,                       !- June Surface Ground Temperature {C}
  14.0238679822574,                       !- July Surface Ground Temperature {C}
  16.1157611184724,                       !- August Surface Ground Temperature {C}
  16.2934789303462,                       !- September Surface Ground Temperature {C}
  14.5920754632847,                       !- October Surface Ground Temperature {C}
  11.374036348653,                        !- November Surface Ground Temperature {C}
  7.68182621661674;                       !- December Surface Ground Temperature {C}

OS:ThermalZone,
  {5dad5b35-a8f9-4398-b9ad-77ca407f5229}, !- Handle
  conditioned space,                      !- Name
  1,                                      !- Multiplier
  ,                                       !- Ceiling Height {m}
  692.06373070848,                        !- Volume {m3}
  ,                                       !- Floor Area {m2}
  ,                                       !- Zone Inside Convection Algorithm
  ,                                       !- Zone Outside Convection Algorithm
  ,                                       !- Zone Conditioning Equipment List Name
  {e2ad691d-032e-4dba-aebb-819c480c9866}, !- Zone Air Inlet Port List
  {2b299738-8100-4949-a648-d19f01c82668}, !- Zone Air Exhaust Port List
  {0f97a32f-c984-40b1-8a7a-76c29c0b33c1}, !- Zone Air Node Name
  {0134ef37-8557-4fa3-b67a-4668f89556b0}, !- Zone Return Air Port List
  ,                                       !- Primary Daylighting Control Name
  ,                                       !- Fraction of Zone Controlled by Primary Daylighting Control
  ,                                       !- Secondary Daylighting Control Name
  ,                                       !- Fraction of Zone Controlled by Secondary Daylighting Control
  ,                                       !- Illuminance Map Name
  ,                                       !- Group Rendering Name
  {dad83e69-67ce-4efd-afe1-db7b20f6ba5d}, !- Thermostat Name
  No;                                     !- Use Ideal Air Loads

OS:Node,
  {13137574-ebfa-4da1-933e-5c957e326d5c}, !- Handle
  Node 1,                                 !- Name
  {0f97a32f-c984-40b1-8a7a-76c29c0b33c1}, !- Inlet Port
  ;                                       !- Outlet Port

OS:Connection,
  {0f97a32f-c984-40b1-8a7a-76c29c0b33c1}, !- Handle
  {5dad5b35-a8f9-4398-b9ad-77ca407f5229}, !- Source Object
  11,                                     !- Outlet Port
  {13137574-ebfa-4da1-933e-5c957e326d5c}, !- Target Object
  2;                                      !- Inlet Port

OS:PortList,
  {e2ad691d-032e-4dba-aebb-819c480c9866}, !- Handle
  {5dad5b35-a8f9-4398-b9ad-77ca407f5229}, !- HVAC Component
  {a5744dd1-e45d-449e-a398-2651edc78868}; !- Port 1

OS:PortList,
  {2b299738-8100-4949-a648-d19f01c82668}, !- Handle
  {5dad5b35-a8f9-4398-b9ad-77ca407f5229}; !- HVAC Component

OS:PortList,
  {0134ef37-8557-4fa3-b67a-4668f89556b0}, !- Handle
  {5dad5b35-a8f9-4398-b9ad-77ca407f5229}, !- HVAC Component
  {0daa2ee4-f8dd-4cb0-86a8-3b9f0fca0841}; !- Port 1

OS:Sizing:Zone,
  {09f5d01d-51c5-4857-bc0b-6d81e0adb0cb}, !- Handle
  {5dad5b35-a8f9-4398-b9ad-77ca407f5229}, !- Zone or ZoneList Name
  SupplyAirTemperature,                   !- Zone Cooling Design Supply Air Temperature Input Method
  14,                                     !- Zone Cooling Design Supply Air Temperature {C}
  11.11,                                  !- Zone Cooling Design Supply Air Temperature Difference {deltaC}
  SupplyAirTemperature,                   !- Zone Heating Design Supply Air Temperature Input Method
  40,                                     !- Zone Heating Design Supply Air Temperature {C}
  11.11,                                  !- Zone Heating Design Supply Air Temperature Difference {deltaC}
  0.0085,                                 !- Zone Cooling Design Supply Air Humidity Ratio {kg-H2O/kg-air}
  0.008,                                  !- Zone Heating Design Supply Air Humidity Ratio {kg-H2O/kg-air}
  ,                                       !- Zone Heating Sizing Factor
  ,                                       !- Zone Cooling Sizing Factor
  DesignDay,                              !- Cooling Design Air Flow Method
  ,                                       !- Cooling Design Air Flow Rate {m3/s}
  ,                                       !- Cooling Minimum Air Flow per Zone Floor Area {m3/s-m2}
  ,                                       !- Cooling Minimum Air Flow {m3/s}
  ,                                       !- Cooling Minimum Air Flow Fraction
  DesignDay,                              !- Heating Design Air Flow Method
  ,                                       !- Heating Design Air Flow Rate {m3/s}
  ,                                       !- Heating Maximum Air Flow per Zone Floor Area {m3/s-m2}
  ,                                       !- Heating Maximum Air Flow {m3/s}
  ,                                       !- Heating Maximum Air Flow Fraction
  No,                                     !- Account for Dedicated Outdoor Air System
  NeutralSupplyAir,                       !- Dedicated Outdoor Air System Control Strategy
  autosize,                               !- Dedicated Outdoor Air Low Setpoint Temperature for Design {C}
  autosize,                               !- Dedicated Outdoor Air High Setpoint Temperature for Design {C}
  Sensible Load Only No Latent Load,      !- Zone Load Sizing Method
  HumidityRatioDifference,                !- Zone Latent Cooling Design Supply Air Humidity Ratio Input Method
  ,                                       !- Zone Dehumidification Design Supply Air Humidity Ratio {kgWater/kgDryAir}
  0.005,                                  !- Zone Cooling Design Supply Air Humidity Ratio Difference {kgWater/kgDryAir}
  HumidityRatioDifference,                !- Zone Latent Heating Design Supply Air Humidity Ratio Input Method
  ,                                       !- Zone Humidification Design Supply Air Humidity Ratio {kgWater/kgDryAir}
  0.005,                                  !- Zone Humidification Design Supply Air Humidity Ratio Difference {kgWater/kgDryAir}
  ,                                       !- Zone Humidistat Dehumidification Set Point Schedule Name
  ,                                       !- Zone Humidistat Humidification Set Point Schedule Name
  ,                                       !- Design Zone Air Distribution Effectiveness in Cooling Mode
  ,                                       !- Design Zone Air Distribution Effectiveness in Heating Mode
  ,                                       !- Design Zone Secondary Recirculation Fraction {dimensionless}
  ,                                       !- Design Minimum Zone Ventilation Efficiency {dimensionless}
  Coincident;                             !- Sizing Option

OS:ZoneHVAC:EquipmentList,
  {1a459b2f-476a-4865-b2da-1b37dee20b16}, !- Handle
  Zone HVAC Equipment List 1,             !- Name
  {5dad5b35-a8f9-4398-b9ad-77ca407f5229}, !- Thermal Zone
  ,                                       !- Load Distribution Scheme
  {c428e654-32c2-4eca-958f-07304dffb86c}, !- Zone Equipment 1
  1,                                      !- Zone Equipment Cooling Sequence 1
  1,                                      !- Zone Equipment Heating or No-Load Sequence 1
  {8b9c9793-a1f6-4e60-9d9c-6dffa7faf54c}, !- Zone Equipment Sequential Cooling Fraction Schedule Name 1
  {06157c3d-3415-4d43-b8a9-bfbba7b70133}; !- Zone Equipment Sequential Heating Fraction Schedule Name 1

OS:AdditionalProperties,
  {81df9a01-296e-417d-9fee-dddf36b7798a}, !- Handle
  {5dad5b35-a8f9-4398-b9ad-77ca407f5229}, !- Object Name
  ObjectType,                             !- Feature Name 1
  String,                                 !- Feature Data Type 1
  conditioned space;                      !- Feature Value 1

OS:Space,
  {9103148d-c95a-49ec-b973-fcea9bd6e6a5}, !- Handle
  conditioned space 1,                    !- Name
  ,                                       !- Space Type Name
  ,                                       !- Default Construction Set Name
  ,                                       !- Default Schedule Set Name
  ,                                       !- Direction of Relative North {deg}
  ,                                       !- X Origin {m}
  ,                                       !- Y Origin {m}
  ,                                       !- Z Origin {m}
  ,                                       !- Building Story Name
  {5dad5b35-a8f9-4398-b9ad-77ca407f5229}, !- Thermal Zone Name
  ,                                       !- Part of Total Floor Area
  ,                                       !- Design Specification Outdoor Air Object Name
  ,                                       !- Building Unit Name
  692.06373070848;                        !- Volume {m3}

OS:Schedule:Ruleset,
  {5235e2c3-2067-4fee-b202-68c123d30dfc}, !- Handle
  heating setpoint,                       !- Name
  {e42d7aeb-6bb8-4234-925c-a6bd2ff77651}, !- Schedule Type Limits Name
  {761b6593-19c3-45d0-8472-1314a18326f0}; !- Default Day Schedule Name

OS:Schedule:Day,
  {761b6593-19c3-45d0-8472-1314a18326f0}, !- Handle
  heating setpoint default day,           !- Name
  {e42d7aeb-6bb8-4234-925c-a6bd2ff77651}, !- Schedule Type Limits Name
  ,                                       !- Interpolate to Timestep
  24,                                     !- Hour 1
  0,                                      !- Minute 1
  0;                                      !- Value Until Time 1

OS:Schedule:Rule,
  {d6fe7446-900e-4278-b3d9-f0bc0ac7b479}, !- Handle
  heating setpoint allday rule,           !- Name
  {5235e2c3-2067-4fee-b202-68c123d30dfc}, !- Schedule Ruleset Name
  0,                                      !- Rule Order
  {66625ac5-d7f9-47ad-9edc-baa146cc8aab}, !- Day Schedule Name
  Yes,                                    !- Apply Sunday
  Yes,                                    !- Apply Monday
  Yes,                                    !- Apply Tuesday
  Yes,                                    !- Apply Wednesday
  Yes,                                    !- Apply Thursday
  Yes,                                    !- Apply Friday
  Yes,                                    !- Apply Saturday
  DateRange,                              !- Date Specification Type
  1,                                      !- Start Month
  1,                                      !- Start Day
  12,                                     !- End Month
  31;                                     !- End Day

OS:Schedule:Day,
  {66625ac5-d7f9-47ad-9edc-baa146cc8aab}, !- Handle
  heating setpoint day,                   !- Name
  {e42d7aeb-6bb8-4234-925c-a6bd2ff77651}, !- Schedule Type Limits Name
  ,                                       !- Interpolate to Timestep
  24,                                     !- Hour 1
  0,                                      !- Minute 1
  20;                                     !- Value Until Time 1

OS:Schedule:Ruleset,
  {0655ea17-ab2f-44c0-9d9b-a18e0e52a8c8}, !- Handle
  cooling setpoint,                       !- Name
  {e42d7aeb-6bb8-4234-925c-a6bd2ff77651}, !- Schedule Type Limits Name
  {2d8387c6-6abf-4a2a-995e-aacf3171c643}; !- Default Day Schedule Name

OS:Schedule:Day,
  {2d8387c6-6abf-4a2a-995e-aacf3171c643}, !- Handle
  cooling setpoint default day,           !- Name
  {e42d7aeb-6bb8-4234-925c-a6bd2ff77651}, !- Schedule Type Limits Name
  ,                                       !- Interpolate to Timestep
  24,                                     !- Hour 1
  0,                                      !- Minute 1
  0;                                      !- Value Until Time 1

OS:Schedule:Rule,
  {a7465f7f-3384-486e-8cab-409fb864991e}, !- Handle
  cooling setpoint allday rule,           !- Name
  {0655ea17-ab2f-44c0-9d9b-a18e0e52a8c8}, !- Schedule Ruleset Name
  0,                                      !- Rule Order
  {c3695802-6657-4812-9419-892ce0e942c8}, !- Day Schedule Name
  Yes,                                    !- Apply Sunday
  Yes,                                    !- Apply Monday
  Yes,                                    !- Apply Tuesday
  Yes,                                    !- Apply Wednesday
  Yes,                                    !- Apply Thursday
  Yes,                                    !- Apply Friday
  Yes,                                    !- Apply Saturday
  DateRange,                              !- Date Specification Type
  1,                                      !- Start Month
  1,                                      !- Start Day
  12,                                     !- End Month
  31;                                     !- End Day

OS:Schedule:Day,
  {c3695802-6657-4812-9419-892ce0e942c8}, !- Handle
  cooling setpoint day,                   !- Name
  {e42d7aeb-6bb8-4234-925c-a6bd2ff77651}, !- Schedule Type Limits Name
  ,                                       !- Interpolate to Timestep
  24,                                     !- Hour 1
  0,                                      !- Minute 1
  25.5555555555556;                       !- Value Until Time 1

OS:ThermostatSetpoint:DualSetpoint,
  {dad83e69-67ce-4efd-afe1-db7b20f6ba5d}, !- Handle
  conditioned space temperature setpoint, !- Name
  {5235e2c3-2067-4fee-b202-68c123d30dfc}, !- Heating Setpoint Temperature Schedule Name
  {0655ea17-ab2f-44c0-9d9b-a18e0e52a8c8}, !- Cooling Setpoint Temperature Schedule Name
  0;                                      !- Temperature Difference Between Cutout And Setpoint {deltaC}

OS:ScheduleTypeLimits,
  {e42d7aeb-6bb8-4234-925c-a6bd2ff77651}, !- Handle
  Temperature,                            !- Name
  ,                                       !- Lower Limit Value
  ,                                       !- Upper Limit Value
  Continuous,                             !- Numeric Type
  Temperature;                            !- Unit Type

OS:Surface,
  {36b5e64e-17e2-4a9c-b985-0e6ff34caade}, !- Handle
  Roof1,                                  !- Name
  RoofCeiling,                            !- Surface Type
  {1fcbd59c-46ed-47d1-a810-8c829bdd04d6}, !- Construction Name
  {2b0f10d5-00d8-48e8-99e4-1bbc1aabacd1}, !- Space Name
  Outdoors,                               !- Outside Boundary Condition
  ,                                       !- Outside Boundary Condition Object
  SunExposed,                             !- Sun Exposure
  WindExposed,                            !- Wind Exposure
  ,                                       !- View Factor to Ground
  ,                                       !- Number of Vertices
  -26.9347048849634, 58.0557891618865, 2.4384, !- X,Y,Z Vertex 1 {m}
  -26.9347048849634, 46.7895631136661, 8.0715130241102, !- X,Y,Z Vertex 2 {m}
  -14.3386812381136, 46.7895631136661, 8.0715130241102, !- X,Y,Z Vertex 3 {m}
  -14.3386812381136, 58.0557891618865, 2.4384; !- X,Y,Z Vertex 4 {m}

OS:AdditionalProperties,
  {df84badd-b5a2-4306-9b90-c78d526895df}, !- Handle
  {36b5e64e-17e2-4a9c-b985-0e6ff34caade}, !- Object Name
  Length,                                 !- Feature Name 1
  Double,                                 !- Feature Data Type 1
  41.325536899113608,                     !- Feature Value 1
  Width,                                  !- Feature Name 2
  Double,                                 !- Feature Data Type 2
  41.325536899113601,                     !- Feature Value 2
  Azimuth,                                !- Feature Name 3
  Integer,                                !- Feature Data Type 3
  0,                                      !- Feature Value 3
  Tilt,                                   !- Feature Name 4
  Double,                                 !- Feature Data Type 4
  0.5,                                    !- Feature Value 4
  SurfaceType,                            !- Feature Name 5
  String,                                 !- Feature Data Type 5
  Roof;                                   !- Feature Value 5

OS:ThermalZone,
  {d8cfbefe-2d4f-40a7-9c00-0435c65a5fbd}, !- Handle
  attic - vented,                         !- Name
  1,                                      !- Multiplier
  ,                                       !- Ceiling Height {m}
  356.389957095237,                       !- Volume {m3}
  ,                                       !- Floor Area {m2}
  ,                                       !- Zone Inside Convection Algorithm
  ,                                       !- Zone Outside Convection Algorithm
  ,                                       !- Zone Conditioning Equipment List Name
  {2ef59c4c-1a1a-45e8-8b57-98640b2a0eb6}, !- Zone Air Inlet Port List
  {88bc6b2e-c7c2-4e14-a1fa-40977dd7c189}, !- Zone Air Exhaust Port List
  {b593b78b-615f-4101-a7b6-2a0a888c1ec5}, !- Zone Air Node Name
  {7a671d38-143a-4f9b-ad49-ffd9661d4adc}, !- Zone Return Air Port List
  ,                                       !- Primary Daylighting Control Name
  ,                                       !- Fraction of Zone Controlled by Primary Daylighting Control
  ,                                       !- Secondary Daylighting Control Name
  ,                                       !- Fraction of Zone Controlled by Secondary Daylighting Control
  ,                                       !- Illuminance Map Name
  ,                                       !- Group Rendering Name
  ,                                       !- Thermostat Name
  No;                                     !- Use Ideal Air Loads

OS:Node,
  {27614e35-2f7a-4b96-a89e-3f01da23e179}, !- Handle
  Node 2,                                 !- Name
  {b593b78b-615f-4101-a7b6-2a0a888c1ec5}, !- Inlet Port
  ;                                       !- Outlet Port

OS:Connection,
  {b593b78b-615f-4101-a7b6-2a0a888c1ec5}, !- Handle
  {d8cfbefe-2d4f-40a7-9c00-0435c65a5fbd}, !- Source Object
  11,                                     !- Outlet Port
  {27614e35-2f7a-4b96-a89e-3f01da23e179}, !- Target Object
  2;                                      !- Inlet Port

OS:PortList,
  {2ef59c4c-1a1a-45e8-8b57-98640b2a0eb6}, !- Handle
  {d8cfbefe-2d4f-40a7-9c00-0435c65a5fbd}; !- HVAC Component

OS:PortList,
  {88bc6b2e-c7c2-4e14-a1fa-40977dd7c189}, !- Handle
  {d8cfbefe-2d4f-40a7-9c00-0435c65a5fbd}; !- HVAC Component

OS:PortList,
  {7a671d38-143a-4f9b-ad49-ffd9661d4adc}, !- Handle
  {d8cfbefe-2d4f-40a7-9c00-0435c65a5fbd}; !- HVAC Component

OS:Sizing:Zone,
  {d5fffe1c-bbaa-4e46-8df9-5f52412f72b8}, !- Handle
  {d8cfbefe-2d4f-40a7-9c00-0435c65a5fbd}, !- Zone or ZoneList Name
  SupplyAirTemperature,                   !- Zone Cooling Design Supply Air Temperature Input Method
  14,                                     !- Zone Cooling Design Supply Air Temperature {C}
  11.11,                                  !- Zone Cooling Design Supply Air Temperature Difference {deltaC}
  SupplyAirTemperature,                   !- Zone Heating Design Supply Air Temperature Input Method
  40,                                     !- Zone Heating Design Supply Air Temperature {C}
  11.11,                                  !- Zone Heating Design Supply Air Temperature Difference {deltaC}
  0.0085,                                 !- Zone Cooling Design Supply Air Humidity Ratio {kg-H2O/kg-air}
  0.008,                                  !- Zone Heating Design Supply Air Humidity Ratio {kg-H2O/kg-air}
  ,                                       !- Zone Heating Sizing Factor
  ,                                       !- Zone Cooling Sizing Factor
  DesignDay,                              !- Cooling Design Air Flow Method
  ,                                       !- Cooling Design Air Flow Rate {m3/s}
  ,                                       !- Cooling Minimum Air Flow per Zone Floor Area {m3/s-m2}
  ,                                       !- Cooling Minimum Air Flow {m3/s}
  ,                                       !- Cooling Minimum Air Flow Fraction
  DesignDay,                              !- Heating Design Air Flow Method
  ,                                       !- Heating Design Air Flow Rate {m3/s}
  ,                                       !- Heating Maximum Air Flow per Zone Floor Area {m3/s-m2}
  ,                                       !- Heating Maximum Air Flow {m3/s}
  ,                                       !- Heating Maximum Air Flow Fraction
  No,                                     !- Account for Dedicated Outdoor Air System
  NeutralSupplyAir,                       !- Dedicated Outdoor Air System Control Strategy
  autosize,                               !- Dedicated Outdoor Air Low Setpoint Temperature for Design {C}
  autosize,                               !- Dedicated Outdoor Air High Setpoint Temperature for Design {C}
  Sensible Load Only No Latent Load,      !- Zone Load Sizing Method
  HumidityRatioDifference,                !- Zone Latent Cooling Design Supply Air Humidity Ratio Input Method
  ,                                       !- Zone Dehumidification Design Supply Air Humidity Ratio {kgWater/kgDryAir}
  0.005,                                  !- Zone Cooling Design Supply Air Humidity Ratio Difference {kgWater/kgDryAir}
  HumidityRatioDifference,                !- Zone Latent Heating Design Supply Air Humidity Ratio Input Method
  ,                                       !- Zone Humidification Design Supply Air Humidity Ratio {kgWater/kgDryAir}
  0.005,                                  !- Zone Humidification Design Supply Air Humidity Ratio Difference {kgWater/kgDryAir}
  ,                                       !- Zone Humidistat Dehumidification Set Point Schedule Name
  ,                                       !- Zone Humidistat Humidification Set Point Schedule Name
  ,                                       !- Design Zone Air Distribution Effectiveness in Cooling Mode
  ,                                       !- Design Zone Air Distribution Effectiveness in Heating Mode
  ,                                       !- Design Zone Secondary Recirculation Fraction {dimensionless}
  ,                                       !- Design Minimum Zone Ventilation Efficiency {dimensionless}
  Coincident;                             !- Sizing Option

OS:ZoneHVAC:EquipmentList,
  {4e843b31-d0dc-4185-b422-1cdbca49f00f}, !- Handle
  Zone HVAC Equipment List 2,             !- Name
  {d8cfbefe-2d4f-40a7-9c00-0435c65a5fbd}; !- Thermal Zone

OS:AdditionalProperties,
  {3bbf7b09-07cf-41b0-a4f7-70df97708bf9}, !- Handle
  {d8cfbefe-2d4f-40a7-9c00-0435c65a5fbd}, !- Object Name
  ObjectType,                             !- Feature Name 1
  String,                                 !- Feature Data Type 1
  attic - vented;                         !- Feature Value 1

OS:Space,
  {2b0f10d5-00d8-48e8-99e4-1bbc1aabacd1}, !- Handle
  attic - vented 1,                       !- Name
  ,                                       !- Space Type Name
  ,                                       !- Default Construction Set Name
  ,                                       !- Default Schedule Set Name
  ,                                       !- Direction of Relative North {deg}
  ,                                       !- X Origin {m}
  ,                                       !- Y Origin {m}
  ,                                       !- Z Origin {m}
  ,                                       !- Building Story Name
  {d8cfbefe-2d4f-40a7-9c00-0435c65a5fbd}, !- Thermal Zone Name
  ,                                       !- Part of Total Floor Area
  ,                                       !- Design Specification Outdoor Air Object Name
  ,                                       !- Building Unit Name
  356.389957095237;                       !- Volume {m3}

OS:Material,
  {4074d3ef-3d94-4511-8e6d-aafe7d96a188}, !- Handle
  asphalt or fiberglass shingles,         !- Name
  Rough,                                  !- Roughness
  0.00635,                                !- Thickness {m}
  0.162714,                               !- Conductivity {W/m-K}
  1121.4,                                 !- Density {kg/m3}
  1465.45,                                !- Specific Heat {J/kg-K}
  0.9,                                    !- Thermal Absorptance
  0.85,                                   !- Solar Absorptance