
OS:Version,
  {1180386b-4040-437d-a2b9-6b73f4c3aafd}, !- Handle
  3.10.0;                                 !- Version Identifier

OS:SimulationControl,
  {5919d946-1363-4efd-bb58-59dcf0663b9b}, !- Handle
  ,                                       !- Do Zone Sizing Calculation
  ,                                       !- Do System Sizing Calculation
  ,                                       !- Do Plant Sizing Calculation
  No;                                     !- Run Simulation for Sizing Periods

OS:Timestep,
  {5392d8e7-3f08-4292-9e51-b43e0d38e9d1}, !- Handle
  1;                                      !- Number of Timesteps per Hour

OS:ShadowCalculation,
  {e98f46b8-96eb-416d-9755-5084ec265e6e}, !- Handle
  PolygonClipping,                        !- Shading Calculation Method
  ,                                       !- Shading Calculation Update Frequency Method
  20,                                     !- Shading Calculation Update Frequency
  200,                                    !- Maximum Figures in Shadow Overlap Calculations
  ,                                       !- Polygon Clipping Algorithm
  512,                                    !- Pixel Counting Resolution
  ,                                       !- Sky Diffuse Modeling Algorithm
  No,                                     !- Output External Shading Calculation Results
  No,                                     !- Disable Self-Shading Within Shading Zone Groups
  No;                                     !- Disable Self-Shading From Shading Zone Groups to Other Zones

OS:SurfaceConvectionAlgorithm:Outside,
  {4bf022f3-69a2-4daa-956f-aeb3fe6b57ff}, !- Handle
  DOE-2;                                  !- Algorithm

OS:SurfaceConvectionAlgorithm:Inside,
  {78ecae8c-9e40-4bec-835b-378e021dea2d}, !- Handle
  TARP;                                   !- Algorithm

OS:ZoneCapacitanceMultiplier:ResearchSpecial,
  {7c5b674b-009f-42de-b755-12572af172f9}, !- Handle
  7,                                      !- Temperature Capacity Multiplier
  15,                                     !- Humidity Capacity Multiplier
  ;                                       !- Carbon Dioxide Capacity Multiplier

OS:ConvergenceLimits,
  {9e8e7ad0-2d39-4220-b2c8-c1acb16d0020}, !- Handle
  0;                                      !- Minimum System Timestep {minutes}

OS:RunPeriod,
  {ff894ab0-0465-46ce-a5f0-b9423afbca19}, !- Handle
  Run Period 1,                           !- Name
  1,                                      !- Begin Month
  1,                                      !- Begin Day of Month
  12,                                     !- End Month
  31,                                     !- End Day of Month
  ,                                       !- Use Weather File Holidays and Special Days
  ,                                       !- Use Weather File Daylight Saving Period
  ,                                       !- Apply Weekend Holiday Rule
  ,                                       !- Use Weather File Rain Indicators
  ,                                       !- Use Weather File Snow Indicators
  ;                                       !- Number of Times Runperiod to be Repeated

OS:PerformancePrecisionTradeoffs,
  {e0c1789a-8230-4c19-9a5f-6823121c2db8}, !- Handle
  ,                                       !- Use Coil Direct Solutions
  CarrollMRT;                             !- Zone Radiant Exchange Algorithm

OS:WeatherFile,
  {e0f7c1b9-f42e-403d-8865-134657d2e0e9}, !- Handle
  Buffalo Niagara Intl Ap,                !- City
  NY,                                     !- State Province Region
  USA,                                    !- Country
  TMY3,                                   !- Data Source
  725280,                                 !- WMO Number
  42.93,                                  !- Latitude {deg}
  -78.73,                                 !- Longitude {deg}
  -5,                                     !- Time Zone {hr}
  215,                                    !- Elevation {m}
  /Users/nmoore/github/urbanopt-example-geojson-project/example_project/weather/USA_NY_Buffalo-Greater.Buffalo.Intl.AP.725280_TMY3.epw, !- Url
  6B50E0FF,                               !- Checksum
  ,                                       !- Start Date Actual Year
  Sunday;                                 !- Start Day of Week

OS:YearDescription,
  {0f5578da-7289-4237-87fd-47e698a83cc5}, !- Handle
  2007,                                   !- Calendar Year
  ,                                       !- Day of Week for Start Day
  ;                                       !- Is Leap Year

OS:Site,
  {77aa0c51-8562-467e-8536-98a8960619b7}, !- Handle
  Buffalo Niagara Intl Ap_NY,             !- Name
  42.93,                                  !- Latitude {deg}
  -78.73,                                 !- Longitude {deg}
  -5,                                     !- Time Zone {hr}
  215,                                    !- Elevation {m}
  Suburbs,                                !- Terrain
  Yes;                                    !- Keep Site Location Information

OS:RunPeriodControl:DaylightSavingTime,
  {0369dc8a-3f9c-4726-9360-780a0ee97895}, !- Handle
  Mar 12,                                 !- Start Date
  Nov 5;                                  !- End Date

OS:Site:GroundTemperature:Shallow,
  {f94bf024-a10a-4150-81e5-ffa0086acd89}, !- Handle
  4.30207395723828,                       !- January Surface Ground Temperature {C}
  2.29327249652502,                       !- February Surface Ground Temperature {C}
  2.13240047156047,                       !- March Surface Ground Temperature {C}
  3.08567940719286,                       !- April Surface Ground Temperature {C}
  6.91256312497526,                       !- May Surface Ground Temperature {C}
  10.7216195949507,                       !- June Surface Ground Temperature {C}
  14.0238679822574,                       !- July Surface Ground Temperature {C}
  16.1157611184724,                       !- August Surface Ground Temperature {C}
  16.2934789303462,                       !- September Surface Ground Temperature {C}
  14.5920754632847,                       !- October Surface Ground Temperature {C}
  11.374036348653,                        !- November Surface Ground Temperature {C}
  7.68182621661674;                       !- December Surface Ground Temperature {C}

OS:ThermalZone,
  {c99e23e6-a131-40bd-aafe-d0f61e637dad}, !- Handle
  conditioned space,                      !- Name
  1,                                      !- Multiplier
  ,                                       !- Ceiling Height {m}
  692.06373070848,                        !- Volume {m3}
  ,                                       !- Floor Area {m2}
  ,                                       !- Zone Inside Convection Algorithm
  ,                                       !- Zone Outside Convection Algorithm
  ,                                       !- Zone Conditioning Equipment List Name
  {23621002-6359-416e-823b-c0787ba21956}, !- Zone Air Inlet Port List
  {dca0c95a-057d-4a8c-811d-8cc721570a8d}, !- Zone Air Exhaust Port List
  {3080122d-e3dd-46d5-b382-800df72acc0e}, !- Zone Air Node Name
  {5252eeac-796d-4fb7-9ecf-296817625d8a}, !- Zone Return Air Port List
  ,                                       !- Primary Daylighting Control Name
  ,                                       !- Fraction of Zone Controlled by Primary Daylighting Control
  ,                                       !- Secondary Daylighting Control Name
  ,                                       !- Fraction of Zone Controlled by Secondary Daylighting Control
  ,                                       !- Illuminance Map Name
  ,                                       !- Group Rendering Name
  {d65d8c6c-dff7-4a07-8af4-06ca9b319c1c}, !- Thermostat Name
  No;                                     !- Use Ideal Air Loads

OS:Node,
  {4014b07f-eb97-404f-863a-c434fb62a884}, !- Handle
  Node 1,                                 !- Name
  {3080122d-e3dd-46d5-b382-800df72acc0e}, !- Inlet Port
  ;                                       !- Outlet Port

OS:Connection,
  {3080122d-e3dd-46d5-b382-800df72acc0e}, !- Handle
  {c99e23e6-a131-40bd-aafe-d0f61e637dad}, !- Source Object
  11,                                     !- Outlet Port
  {4014b07f-eb97-404f-863a-c434fb62a884}, !- Target Object
  2;                                      !- Inlet Port

OS:PortList,
  {23621002-6359-416e-823b-c0787ba21956}, !- Handle
  {c99e23e6-a131-40bd-aafe-d0f61e637dad}, !- HVAC Component
  {b1123c79-54ea-41a0-bb8d-9f94b4b101ca}; !- Port 1

OS:PortList,
  {dca0c95a-057d-4a8c-811d-8cc721570a8d}, !- Handle
  {c99e23e6-a131-40bd-aafe-d0f61e637dad}; !- HVAC Component

OS:PortList,
  {5252eeac-796d-4fb7-9ecf-296817625d8a}, !- Handle
  {c99e23e6-a131-40bd-aafe-d0f61e637dad}, !- HVAC Component
  {f9f8b871-a2fc-4ede-8c87-5b0461bd0a1e}; !- Port 1

OS:Sizing:Zone,
  {e754defa-cd53-4ebc-9cd9-cfc80ef962cf}, !- Handle
  {c99e23e6-a131-40bd-aafe-d0f61e637dad}, !- Zone or ZoneList Name
  SupplyAirTemperature,                   !- Zone Cooling Design Supply Air Temperature Input Method
  14,                                     !- Zone Cooling Design Supply Air Temperature {C}
  11.11,                                  !- Zone Cooling Design Supply Air Temperature Difference {deltaC}
  SupplyAirTemperature,                   !- Zone Heating Design Supply Air Temperature Input Method
  40,                                     !- Zone Heating Design Supply Air Temperature {C}
  11.11,                                  !- Zone Heating Design Supply Air Temperature Difference {deltaC}
  0.0085,                                 !- Zone Cooling Design Supply Air Humidity Ratio {kg-H2O/kg-air}
  0.008,                                  !- Zone Heating Design Supply Air Humidity Ratio {kg-H2O/kg-air}
  ,                                       !- Zone Heating Sizing Factor
  ,                                       !- Zone Cooling Sizing Factor
  DesignDay,                              !- Cooling Design Air Flow Method
  ,                                       !- Cooling Design Air Flow Rate {m3/s}
  ,                                       !- Cooling Minimum Air Flow per Zone Floor Area {m3/s-m2}
  ,                                       !- Cooling Minimum Air Flow {m3/s}
  ,                                       !- Cooling Minimum Air Flow Fraction
  DesignDay,                              !- Heating Design Air Flow Method
  ,                                       !- Heating Design Air Flow Rate {m3/s}
  ,                                       !- Heating Maximum Air Flow per Zone Floor Area {m3/s-m2}
  ,                                       !- Heating Maximum Air Flow {m3/s}
  ,                                       !- Heating Maximum Air Flow Fraction
  No,                                     !- Account for Dedicated Outdoor Air System
  NeutralSupplyAir,                       !- Dedicated Outdoor Air System Control Strategy
  autosize,                               !- Dedicated Outdoor Air Low Setpoint Temperature for Design {C}
  autosize,                               !- Dedicated Outdoor Air High Setpoint Temperature for Design {C}
  Sensible Load Only No Latent Load,      !- Zone Load Sizing Method
  HumidityRatioDifference,                !- Zone Latent Cooling Design Supply Air Humidity Ratio Input Method
  ,                                       !- Zone Dehumidification Design Supply Air Humidity Ratio {kgWater/kgDryAir}
  0.005,                                  !- Zone Cooling Design Supply Air Humidity Ratio Difference {kgWater/kgDryAir}
  HumidityRatioDifference,                !- Zone Latent Heating Design Supply Air Humidity Ratio Input Method
  ,                                       !- Zone Humidification Design Supply Air Humidity Ratio {kgWater/kgDryAir}
  0.005,                                  !- Zone Humidification Design Supply Air Humidity Ratio Difference {kgWater/kgDryAir}
  ,                                       !- Zone Humidistat Dehumidification Set Point Schedule Name
  ,                                       !- Zone Humidistat Humidification Set Point Schedule Name
  ,                                       !- Design Zone Air Distribution Effectiveness in Cooling Mode
  ,                                       !- Design Zone Air Distribution Effectiveness in Heating Mode
  ,                                       !- Design Zone Secondary Recirculation Fraction {dimensionless}
  ,                                       !- Design Minimum Zone Ventilation Efficiency {dimensionless}
  Coincident;                             !- Sizing Option

OS:ZoneHVAC:EquipmentList,
  {de83def1-505b-4ac3-8793-594cd45b574a}, !- Handle
  Zone HVAC Equipment List 1,             !- Name
  {c99e23e6-a131-40bd-aafe-d0f61e637dad}, !- Thermal Zone
  ,                                       !- Load Distribution Scheme
  {49e2e388-6e0a-4f56-92c0-fb011ddf6dfb}, !- Zone Equipment 1
  1,                                      !- Zone Equipment Cooling Sequence 1
  1,                                      !- Zone Equipment Heating or No-Load Sequence 1
  {bf968d0b-dfa0-40c8-bd96-7fece060037b}, !- Zone Equipment Sequential Cooling Fraction Schedule Name 1
  {56b7f324-8343-4f1f-b4d7-88cc3a74187f}; !- Zone Equipment Sequential Heating Fraction Schedule Name 1

OS:AdditionalProperties,
  {f995b2ef-c88f-4427-88c8-76160499f9a9}, !- Handle
  {c99e23e6-a131-40bd-aafe-d0f61e637dad}, !- Object Name
  ObjectType,                             !- Feature Name 1
  String,                                 !- Feature Data Type 1
  conditioned space;                      !- Feature Value 1

OS:Space,
  {683ce17f-8168-4fae-b9bc-01a978aebd13}, !- Handle
  conditioned space 1,                    !- Name
  ,                                       !- Space Type Name
  ,                                       !- Default Construction Set Name
  ,                                       !- Default Schedule Set Name
  ,                                       !- Direction of Relative North {deg}
  ,                                       !- X Origin {m}
  ,                                       !- Y Origin {m}
  ,                                       !- Z Origin {m}
  ,                                       !- Building Story Name
  {c99e23e6-a131-40bd-aafe-d0f61e637dad}, !- Thermal Zone Name
  ,                                       !- Part of Total Floor Area
  ,                                       !- Design Specification Outdoor Air Object Name
  ,                                       !- Building Unit Name
  692.06373070848;                        !- Volume {m3}

OS:Schedule:Ruleset,
  {cbeeff66-3235-4fd4-98aa-ea1786c33678}, !- Handle
  heating setpoint,                       !- Name
  {5b79c3cd-f51a-4977-828a-e909331b18c4}, !- Schedule Type Limits Name
  {3b6fa316-9871-4eda-9019-350c12ccf1f0}; !- Default Day Schedule Name

OS:Schedule:Day,
  {3b6fa316-9871-4eda-9019-350c12ccf1f0}, !- Handle
  heating setpoint default day,           !- Name
  {5b79c3cd-f51a-4977-828a-e909331b18c4}, !- Schedule Type Limits Name
  ,                                       !- Interpolate to Timestep
  24,                                     !- Hour 1
  0,                                      !- Minute 1
  0;                                      !- Value Until Time 1

OS:Schedule:Rule,
  {ade6c3cc-1e74-4c93-894d-cf0be9c11376}, !- Handle
  heating setpoint allday rule,           !- Name
  {cbeeff66-3235-4fd4-98aa-ea1786c33678}, !- Schedule Ruleset Name
  0,                                      !- Rule Order
  {fdd51f6d-3b09-4d7d-93e1-ae65579a4a99}, !- Day Schedule Name
  Yes,                                    !- Apply Sunday
  Yes,                                    !- Apply Monday
  Yes,                                    !- Apply Tuesday
  Yes,                                    !- Apply Wednesday
  Yes,                                    !- Apply Thursday
  Yes,                                    !- Apply Friday
  Yes,                                    !- Apply Saturday
  DateRange,                              !- Date Specification Type
  1,                                      !- Start Month
  1,                                      !- Start Day
  12,                                     !- End Month
  31;                                     !- End Day

OS:Schedule:Day,
  {fdd51f6d-3b09-4d7d-93e1-ae65579a4a99}, !- Handle
  heating setpoint day,                   !- Name
  {5b79c3cd-f51a-4977-828a-e909331b18c4}, !- Schedule Type Limits Name
  ,                                       !- Interpolate to Timestep
  24,                                     !- Hour 1
  0,                                      !- Minute 1
  20;                                     !- Value Until Time 1

OS:Schedule:Ruleset,
  {0f74b619-8239-4505-82b6-53acf6865aa8}, !- Handle
  cooling setpoint,                       !- Name
  {5b79c3cd-f51a-4977-828a-e909331b18c4}, !- Schedule Type Limits Name
  {76f66601-7a87-4f87-ab87-51b2983ce443}; !- Default Day Schedule Name

OS:Schedule:Day,
  {76f66601-7a87-4f87-ab87-51b2983ce443}, !- Handle
  cooling setpoint default day,           !- Name
  {5b79c3cd-f51a-4977-828a-e909331b18c4}, !- Schedule Type Limits Name
  ,                                       !- Interpolate to Timestep
  24,                                     !- Hour 1
  0,                                      !- Minute 1
  0;                                      !- Value Until Time 1

OS:Schedule:Rule,
  {afd9c9e4-2883-4c1f-be94-d86e18eb0a58}, !- Handle
  cooling setpoint allday rule,           !- Name
  {0f74b619-8239-4505-82b6-53acf6865aa8}, !- Schedule Ruleset Name
  0,                                      !- Rule Order
  {0b5961f1-f07b-421f-bcef-0b9137ff08ef}, !- Day Schedule Name
  Yes,                                    !- Apply Sunday
  Yes,                                    !- Apply Monday
  Yes,                                    !- Apply Tuesday
  Yes,                                    !- Apply Wednesday
  Yes,                                    !- Apply Thursday
  Yes,                                    !- Apply Friday
  Yes,                                    !- Apply Saturday
  DateRange,                              !- Date Specification Type
  1,                                      !- Start Month
  1,                                      !- Start Day
  12,                                     !- End Month
  31;                                     !- End Day

OS:Schedule:Day,
  {0b5961f1-f07b-421f-bcef-0b9137ff08ef}, !- Handle
  cooling setpoint day,                   !- Name
  {5b79c3cd-f51a-4977-828a-e909331b18c4}, !- Schedule Type Limits Name
  ,                                       !- Interpolate to Timestep
  24,                                     !- Hour 1
  0,                                      !- Minute 1
  25.5555555555556;                       !- Value Until Time 1

OS:ThermostatSetpoint:DualSetpoint,
  {d65d8c6c-dff7-4a07-8af4-06ca9b319c1c}, !- Handle
  conditioned space temperature setpoint, !- Name
  {cbeeff66-3235-4fd4-98aa-ea1786c33678}, !- Heating Setpoint Temperature Schedule Name
  {0f74b619-8239-4505-82b6-53acf6865aa8}, !- Cooling Setpoint Temperature Schedule Name
  0;                                      !- Temperature Difference Between Cutout And Setpoint {deltaC}

OS:ScheduleTypeLimits,
  {5b79c3cd-f51a-4977-828a-e909331b18c4}, !- Handle
  Temperature,                            !- Name
  ,                                       !- Lower Limit Value
  ,                                       !- Upper Limit Value
  Continuous,                             !- Numeric Type
  Temperature;                            !- Unit Type

OS:Surface,
  {27f4d9e5-4c30-49ba-a3d2-9fe6f95a2aea}, !- Handle
  Roof1,                                  !- Name
  RoofCeiling,                            !- Surface Type
  {95ad638b-f83f-49ce-91b1-d886334c392e}, !- Construction Name
  {bd18f51f-9d0f-4b4d-8f25-e600f9a24ea4}, !- Space Name
  Outdoors,                               !- Outside Boundary Condition
  ,                                       !- Outside Boundary Condition Object
  SunExposed,                             !- Sun Exposure
  WindExposed,                            !- Wind Exposure
  ,                                       !- View Factor to Ground
  ,                                       !- Number of Vertices
  11.1065013252255, 23.7025249720753, 2.4384, !- X,Y,Z Vertex 1 {m}
  11.1065013252255, 12.4362989238549, 8.0715130241102, !- X,Y,Z Vertex 2 {m}
  23.7025249720753, 12.4362989238549, 8.0715130241102, !- X,Y,Z Vertex 3 {m}
  23.7025249720753, 23.7025249720753, 2.4384; !- X,Y,Z Vertex 4 {m}

OS:AdditionalProperties,
  {b9ccd26b-c6af-45cb-b391-286154824981}, !- Handle
  {27f4d9e5-4c30-49ba-a3d2-9fe6f95a2aea}, !- Object Name
  Length,                                 !- Feature Name 1
  Double,                                 !- Feature Data Type 1
  41.325536899113608,                     !- Feature Value 1
  Width,                                  !- Feature Name 2
  Double,                                 !- Feature Data Type 2
  41.325536899113601,                     !- Feature Value 2
  Azimuth,                                !- Feature Name 3
  Integer,                                !- Feature Data Type 3
  0,                                      !- Feature Value 3
  Tilt,                                   !- Feature Name 4
  Double,                                 !- Feature Data Type 4
  0.5,                                    !- Feature Value 4
  SurfaceType,                            !- Feature Name 5
  String,                                 !- Feature Data Type 5
  Roof;                                   !- Feature Value 5

OS:ThermalZone,
  {e156b361-9d05-4332-a1e4-df1eec0f2046}, !- Handle
  attic - vented,                         !- Name
  1,                                      !- Multiplier
  ,                                       !- Ceiling Height {m}
  443.592808147228,                       !- Volume {m3}
  ,                                       !- Floor Area {m2}
  ,                                       !- Zone Inside Convection Algorithm
  ,                                       !- Zone Outside Convection Algorithm
  ,                                       !- Zone Conditioning Equipment List Name
  {3bfbceb6-ce6e-4b35-b0d2-9d28a5c4fbe5}, !- Zone Air Inlet Port List
  {7cf2e823-82f5-4ed6-96cd-d815701ae417}, !- Zone Air Exhaust Port List
  {6b652960-a962-40b0-bc84-48d262c55214}, !- Zone Air Node Name
  {e232ccf9-e146-4561-be27-52be9c620b9d}, !- Zone Return Air Port List
  ,                                       !- Primary Daylighting Control Name
  ,                                       !- Fraction of Zone Controlled by Primary Daylighting Control
  ,                                       !- Secondary Daylighting Control Name
  ,                                       !- Fraction of Zone Controlled by Secondary Daylighting Control
  ,                                       !- Illuminance Map Name
  ,                                       !- Group Rendering Name
  ,                                       !- Thermostat Name
  No;                                     !- Use Ideal Air Loads

OS:Node,
  {8f883c28-d6f5-46eb-90d3-7205e2671228}, !- Handle
  Node 2,                                 !- Name
  {6b652960-a962-40b0-bc84-48d262c55214}, !- Inlet Port
  ;                                       !- Outlet Port

OS:Connection,
  {6b652960-a962-40b0-bc84-48d262c55214}, !- Handle
  {e156b361-9d05-4332-a1e4-df1eec0f2046}, !- Source Object
  11,                                     !- Outlet Port
  {8f883c28-d6f5-46eb-90d3-7205e2671228}, !- Target Object
  2;                                      !- Inlet Port

OS:PortList,
  {3bfbceb6-ce6e-4b35-b0d2-9d28a5c4fbe5}, !- Handle
  {e156b361-9d05-4332-a1e4-df1eec0f2046}; !- HVAC Component

OS:PortList,
  {7cf2e823-82f5-4ed6-96cd-d815701ae417}, !- Handle
  {e156b361-9d05-4332-a1e4-df1eec0f2046}; !- HVAC Component

OS:PortList,
  {e232ccf9-e146-4561-be27-52be9c620b9d}, !- Handle
  {e156b361-9d05-4332-a1e4-df1eec0f2046}; !- HVAC Component

OS:Sizing:Zone,
  {960d09d7-f5c7-4075-a395-d607cc470aea}, !- Handle
  {e156b361-9d05-4332-a1e4-df1eec0f2046}, !- Zone or ZoneList Name
  SupplyAirTemperature,                   !- Zone Cooling Design Supply Air Temperature Input Method
  14,                                     !- Zone Cooling Design Supply Air Temperature {C}
  11.11,                                  !- Zone Cooling Design Supply Air Temperature Difference {deltaC}
  SupplyAirTemperature,                   !- Zone Heating Design Supply Air Temperature Input Method
  40,                                     !- Zone Heating Design Supply Air Temperature {C}
  11.11,                                  !- Zone Heating Design Supply Air Temperature Difference {deltaC}
  0.0085,                                 !- Zone Cooling Design Supply Air Humidity Ratio {kg-H2O/kg-air}
  0.008,                                  !- Zone Heating Design Supply Air Humidity Ratio {kg-H2O/kg-air}
  ,                                       !- Zone Heating Sizing Factor
  ,                                       !- Zone Cooling Sizing Factor
  DesignDay,                              !- Cooling Design Air Flow Method
  ,                                       !- Cooling Design Air Flow Rate {m3/s}
  ,                                       !- Cooling Minimum Air Flow per Zone Floor Area {m3/s-m2}
  ,                                       !- Cooling Minimum Air Flow {m3/s}
  ,                                       !- Cooling Minimum Air Flow Fraction
  DesignDay,                              !- Heating Design Air Flow Method
  ,                                       !- Heating Design Air Flow Rate {m3/s}
  ,                                       !- Heating Maximum Air Flow per Zone Floor Area {m3/s-m2}
  ,                                       !- Heating Maximum Air Flow {m3/s}
  ,                                       !- Heating Maximum Air Flow Fraction
  No,                                     !- Account for Dedicated Outdoor Air System
  NeutralSupplyAir,                       !- Dedicated Outdoor Air System Control Strategy
  autosize,                               !- Dedicated Outdoor Air Low Setpoint Temperature for Design {C}
  autosize,                               !- Dedicated Outdoor Air High Setpoint Temperature for Design {C}
  Sensible Load Only No Latent Load,      !- Zone Load Sizing Method
  HumidityRatioDifference,                !- Zone Latent Cooling Design Supply Air Humidity Ratio Input Method
  ,                                       !- Zone Dehumidification Design Supply Air Humidity Ratio {kgWater/kgDryAir}
  0.005,                                  !- Zone Cooling Design Supply Air Humidity Ratio Difference {kgWater/kgDryAir}
  HumidityRatioDifference,                !- Zone Latent Heating Design Supply Air Humidity Ratio Input Method
  ,                                       !- Zone Humidification Design Supply Air Humidity Ratio {kgWater/kgDryAir}
  0.005,                                  !- Zone Humidification Design Supply Air Humidity Ratio Difference {kgWater/kgDryAir}
  ,                                       !- Zone Humidistat Dehumidification Set Point Schedule Name
  ,                                       !- Zone Humidistat Humidification Set Point Schedule Name
  ,                                       !- Design Zone Air Distribution Effectiveness in Cooling Mode
  ,                                       !- Design Zone Air Distribution Effectiveness in Heating Mode
  ,                                       !- Design Zone Secondary Recirculation Fraction {dimensionless}
  ,                                       !- Design Minimum Zone Ventilation Efficiency {dimensionless}
  Coincident;                             !- Sizing Option

OS:ZoneHVAC:EquipmentList,
  {f95cf842-a035-43a5-a900-035bfac418ea}, !- Handle
  Zone HVAC Equipment List 2,             !- Name
  {e156b361-9d05-4332-a1e4-df1eec0f2046}; !- Thermal Zone

OS:AdditionalProperties,
  {31f05146-333c-49b8-ad9e-dea36d14620a}, !- Handle
  {e156b361-9d05-4332-a1e4-df1eec0f2046}, !- Object Name
  ObjectType,                             !- Feature Name 1
  String,                                 !- Feature Data Type 1
  attic - vented;                         !- Feature Value 1

OS:Space,
  {bd18f51f-9d0f-4b4d-8f25-e600f9a24ea4}, !- Handle
  attic - vented 1,                       !- Name
  ,                                       !- Space Type Name
  ,                                       !- Default Construction Set Name
  ,                                       !- Default Schedule Set Name
  ,                                       !- Direction of Relative North {deg}
  ,                                       !- X Origin {m}
  ,                                       !- Y Origin {m}
  ,                                       !- Z Origin {m}
  ,                                       !- Building Story Name
  {e156b361-9d05-4332-a1e4-df1eec0f2046}, !- Thermal Zone Name
  ,                                       !- Part of Total Floor Area
  ,                                       !- Design Specification Outdoor Air Object Name
  ,                                       !- Building Unit Name
  443.592808147228;                       !- Volume {m3}

OS:Material,
  {b0d34955-6ff9-4de1-bd0b-c6d5b4622461}, !- Handle
  asphalt or fiberglass shingles,         !- Name
  Rough,                                  !- Roughness
  0.00635,                                !- Thickness {m}
  0.162714,                               !- Conductivity {W/m-K}
  1121.4,                                 !- Density {kg/m3}
  1465.45,                                !- Specific Heat {J/kg-K}
  0.9,                                    !- Thermal Absorptance
  0.85,                                   !- Solar Absorptance