
OS:Version,
  {2a760980-3354-49ed-a29c-8e25821d6f4a}, !- Handle
  3.9.0;                                  !- Version Identifier

OS:SimulationControl,
  {f15d34fb-aa2b-47ae-92cb-9ad2d530f3c2}, !- Handle
  ,                                       !- Do Zone Sizing Calculation
  ,                                       !- Do System Sizing Calculation
  ,                                       !- Do Plant Sizing Calculation
  No;                                     !- Run Simulation for Sizing Periods

OS:Timestep,
  {0bbfd42f-6f34-4173-b22b-49012b19e0a1}, !- Handle
  1;                                      !- Number of Timesteps per Hour

OS:ShadowCalculation,
  {efa98f15-2ffe-42c7-95c3-975e69899496}, !- Handle
  PolygonClipping,                        !- Shading Calculation Method
  ,                                       !- Shading Calculation Update Frequency Method
  20,                                     !- Shading Calculation Update Frequency
  200,                                    !- Maximum Figures in Shadow Overlap Calculations
  ,                                       !- Polygon Clipping Algorithm
  512,                                    !- Pixel Counting Resolution
  ,                                       !- Sky Diffuse Modeling Algorithm
  No,                                     !- Output External Shading Calculation Results
  No,                                     !- Disable Self-Shading Within Shading Zone Groups
  No;                                     !- Disable Self-Shading From Shading Zone Groups to Other Zones

OS:SurfaceConvectionAlgorithm:Outside,
  {c052ce4e-697a-4af4-a717-fa19c70deed6}, !- Handle
  DOE-2;                                  !- Algorithm

OS:SurfaceConvectionAlgorithm:Inside,
  {a92df82b-32ce-4bd2-9c21-d15fb2a4ab66}, !- Handle
  TARP;                                   !- Algorithm

OS:ZoneCapacitanceMultiplier:ResearchSpecial,
  {c849f50a-5d5a-48e1-9324-1ee64272a4c9}, !- Handle
  7,                                      !- Temperature Capacity Multiplier
  15,                                     !- Humidity Capacity Multiplier
  ;                                       !- Carbon Dioxide Capacity Multiplier

OS:ConvergenceLimits,
  {ffdb0030-544e-41f5-9e7e-5a78d6bac61a}, !- Handle
  0;                                      !- Minimum System Timestep {minutes}

OS:RunPeriod,
  {137ab71a-cd84-4e64-bc1e-993a9b7e87b7}, !- Handle
  Run Period 1,                           !- Name
  1,                                      !- Begin Month
  1,                                      !- Begin Day of Month
  12,                                     !- End Month
  31,                                     !- End Day of Month
  ,                                       !- Use Weather File Holidays and Special Days
  ,                                       !- Use Weather File Daylight Saving Period
  ,                                       !- Apply Weekend Holiday Rule
  ,                                       !- Use Weather File Rain Indicators
  ,                                       !- Use Weather File Snow Indicators
  ;                                       !- Number of Times Runperiod to be Repeated

OS:PerformancePrecisionTradeoffs,
  {0ecf083f-f9d5-4197-94db-0cad11d25136}, !- Handle
  ,                                       !- Use Coil Direct Solutions
  CarrollMRT;                             !- Zone Radiant Exchange Algorithm

OS:WeatherFile,
  {2ef6c6f6-2652-4eea-9395-3f0dc5ffccf7}, !- Handle
  Buffalo Niagara Intl Ap,                !- City
  NY,                                     !- State Province Region
  USA,                                    !- Country
  TMY3,                                   !- Data Source
  725280,                                 !- WMO Number
  42.93,                                  !- Latitude {deg}
  -78.73,                                 !- Longitude {deg}
  -5,                                     !- Time Zone {hr}
  215,                                    !- Elevation {m}
  /Users/nmoore/github/urbanopt-example-geojson-project/example_project/weather/USA_NY_Buffalo-Greater.Buffalo.Intl.AP.725280_TMY3.epw, !- Url
  6B50E0FF,                               !- Checksum
  ,                                       !- Start Date Actual Year
  Sunday;                                 !- Start Day of Week

OS:YearDescription,
  {9a4d5adb-a2f7-4a75-9b32-2e12d74d6813}, !- Handle
  2007,                                   !- Calendar Year
  ,                                       !- Day of Week for Start Day
  ;                                       !- Is Leap Year

OS:Site,
  {4b2e2a27-54e8-4444-bd7e-7b355e0fc724}, !- Handle
  Buffalo Niagara Intl Ap_NY,             !- Name
  42.93,                                  !- Latitude {deg}
  -78.73,                                 !- Longitude {deg}
  -5,                                     !- Time Zone {hr}
  215,                                    !- Elevation {m}
  Suburbs,                                !- Terrain
  Yes;                                    !- Keep Site Location Information

OS:RunPeriodControl:DaylightSavingTime,
  {ec31a0d8-5ef7-490f-a96a-3dd65732e90d}, !- Handle
  Mar 12,                                 !- Start Date
  Nov 5;                                  !- End Date

OS:Site:GroundTemperature:Shallow,
  {024605b2-0393-4350-bf30-8d649ab277e2}, !- Handle
  4.30207395723828,                       !- January Surface Ground Temperature {C}
  2.29327249652502,                       !- February Surface Ground Temperature {C}
  2.13240047156047,                       !- March Surface Ground Temperature {C}
  3.08567940719286,                       !- April Surface Ground Temperature {C}
  6.91256312497526,                       !- May Surface Ground Temperature {C}
  10.7216195949507,                       !- June Surface Ground Temperature {C}
  14.0238679822574,                       !- July Surface Ground Temperature {C}
  16.1157611184724,                       !- August Surface Ground Temperature {C}
  16.2934789303462,                       !- September Surface Ground Temperature {C}
  14.5920754632847,                       !- October Surface Ground Temperature {C}
  11.374036348653,                        !- November Surface Ground Temperature {C}
  7.68182621661674;                       !- December Surface Ground Temperature {C}

OS:ThermalZone,
  {6671a7c1-dc83-49f6-83e2-b928fadad66b}, !- Handle
  conditioned space,                      !- Name
  1,                                      !- Multiplier
  ,                                       !- Ceiling Height {m}
  692.06373070848,                        !- Volume {m3}
  ,                                       !- Floor Area {m2}
  ,                                       !- Zone Inside Convection Algorithm
  ,                                       !- Zone Outside Convection Algorithm
  ,                                       !- Zone Conditioning Equipment List Name
  {d3d3169e-6f62-49ad-844c-5368bdc465e8}, !- Zone Air Inlet Port List
  {628f09ea-faf6-4e00-b48b-25b45b832523}, !- Zone Air Exhaust Port List
  {c6867e98-398a-4885-b13a-695d997dd7ce}, !- Zone Air Node Name
  {04039c19-abe3-4862-bc06-717fb5884bf8}, !- Zone Return Air Port List
  ,                                       !- Primary Daylighting Control Name
  ,                                       !- Fraction of Zone Controlled by Primary Daylighting Control
  ,                                       !- Secondary Daylighting Control Name
  ,                                       !- Fraction of Zone Controlled by Secondary Daylighting Control
  ,                                       !- Illuminance Map Name
  ,                                       !- Group Rendering Name
  {4b0b320c-1bb3-4a62-bf4b-3773b96a96d7}, !- Thermostat Name
  No;                                     !- Use Ideal Air Loads

OS:Node,
  {12168ddd-7bee-4efd-b28c-8de78117deda}, !- Handle
  Node 1,                                 !- Name
  {c6867e98-398a-4885-b13a-695d997dd7ce}, !- Inlet Port
  ;                                       !- Outlet Port

OS:Connection,
  {c6867e98-398a-4885-b13a-695d997dd7ce}, !- Handle
  {6671a7c1-dc83-49f6-83e2-b928fadad66b}, !- Source Object
  11,                                     !- Outlet Port
  {12168ddd-7bee-4efd-b28c-8de78117deda}, !- Target Object
  2;                                      !- Inlet Port

OS:PortList,
  {d3d3169e-6f62-49ad-844c-5368bdc465e8}, !- Handle
  {6671a7c1-dc83-49f6-83e2-b928fadad66b}, !- HVAC Component
  {471d1c48-6eef-472c-b0ac-8a704ef9fd5e}; !- Port 1

OS:PortList,
  {628f09ea-faf6-4e00-b48b-25b45b832523}, !- Handle
  {6671a7c1-dc83-49f6-83e2-b928fadad66b}; !- HVAC Component

OS:PortList,
  {04039c19-abe3-4862-bc06-717fb5884bf8}, !- Handle
  {6671a7c1-dc83-49f6-83e2-b928fadad66b}, !- HVAC Component
  {27cc31c8-9138-42db-8673-3962b1cfdddd}; !- Port 1

OS:Sizing:Zone,
  {51e6a035-4252-4ba2-a728-08068939bf12}, !- Handle
  {6671a7c1-dc83-49f6-83e2-b928fadad66b}, !- Zone or ZoneList Name
  SupplyAirTemperature,                   !- Zone Cooling Design Supply Air Temperature Input Method
  14,                                     !- Zone Cooling Design Supply Air Temperature {C}
  11.11,                                  !- Zone Cooling Design Supply Air Temperature Difference {deltaC}
  SupplyAirTemperature,                   !- Zone Heating Design Supply Air Temperature Input Method
  40,                                     !- Zone Heating Design Supply Air Temperature {C}
  11.11,                                  !- Zone Heating Design Supply Air Temperature Difference {deltaC}
  0.0085,                                 !- Zone Cooling Design Supply Air Humidity Ratio {kg-H2O/kg-air}
  0.008,                                  !- Zone Heating Design Supply Air Humidity Ratio {kg-H2O/kg-air}
  ,                                       !- Zone Heating Sizing Factor
  ,                                       !- Zone Cooling Sizing Factor
  DesignDay,                              !- Cooling Design Air Flow Method
  ,                                       !- Cooling Design Air Flow Rate {m3/s}
  ,                                       !- Cooling Minimum Air Flow per Zone Floor Area {m3/s-m2}
  ,                                       !- Cooling Minimum Air Flow {m3/s}
  ,                                       !- Cooling Minimum Air Flow Fraction
  DesignDay,                              !- Heating Design Air Flow Method
  ,                                       !- Heating Design Air Flow Rate {m3/s}
  ,                                       !- Heating Maximum Air Flow per Zone Floor Area {m3/s-m2}
  ,                                       !- Heating Maximum Air Flow {m3/s}
  ,                                       !- Heating Maximum Air Flow Fraction
  No,                                     !- Account for Dedicated Outdoor Air System
  NeutralSupplyAir,                       !- Dedicated Outdoor Air System Control Strategy
  autosize,                               !- Dedicated Outdoor Air Low Setpoint Temperature for Design {C}
  autosize,                               !- Dedicated Outdoor Air High Setpoint Temperature for Design {C}
  Sensible Load Only No Latent Load,      !- Zone Load Sizing Method
  HumidityRatioDifference,                !- Zone Latent Cooling Design Supply Air Humidity Ratio Input Method
  ,                                       !- Zone Dehumidification Design Supply Air Humidity Ratio {kgWater/kgDryAir}
  0.005,                                  !- Zone Cooling Design Supply Air Humidity Ratio Difference {kgWater/kgDryAir}
  HumidityRatioDifference,                !- Zone Latent Heating Design Supply Air Humidity Ratio Input Method
  ,                                       !- Zone Humidification Design Supply Air Humidity Ratio {kgWater/kgDryAir}
  0.005,                                  !- Zone Humidification Design Supply Air Humidity Ratio Difference {kgWater/kgDryAir}
  ,                                       !- Zone Humidistat Dehumidification Set Point Schedule Name
  ,                                       !- Zone Humidistat Humidification Set Point Schedule Name
  ,                                       !- Design Zone Air Distribution Effectiveness in Cooling Mode
  ,                                       !- Design Zone Air Distribution Effectiveness in Heating Mode
  ,                                       !- Design Zone Secondary Recirculation Fraction {dimensionless}
  ,                                       !- Design Minimum Zone Ventilation Efficiency {dimensionless}
  Coincident;                             !- Sizing Option

OS:ZoneHVAC:EquipmentList,
  {71222001-c046-4547-be35-8642a6e41ef4}, !- Handle
  Zone HVAC Equipment List 1,             !- Name
  {6671a7c1-dc83-49f6-83e2-b928fadad66b}, !- Thermal Zone
  ,                                       !- Load Distribution Scheme
  {3d7c67f4-0b46-4812-9843-ea14ffc38ecc}, !- Zone Equipment 1
  1,                                      !- Zone Equipment Cooling Sequence 1
  1,                                      !- Zone Equipment Heating or No-Load Sequence 1
  {76be3dd2-7c27-4ca0-b845-7b8a63fa5a6d}, !- Zone Equipment Sequential Cooling Fraction Schedule Name 1
  {f689d784-fbbf-4d96-aa27-4a84293dd7ee}; !- Zone Equipment Sequential Heating Fraction Schedule Name 1

OS:AdditionalProperties,
  {553b2f8e-e9ea-4f6a-acd5-454567c3a114}, !- Handle
  {6671a7c1-dc83-49f6-83e2-b928fadad66b}, !- Object Name
  ObjectType,                             !- Feature Name 1
  String,                                 !- Feature Data Type 1
  conditioned space;                      !- Feature Value 1

OS:Space,
  {2e060d27-4621-4e40-947f-fc1620744fd0}, !- Handle
  conditioned space 1,                    !- Name
  ,                                       !- Space Type Name
  ,                                       !- Default Construction Set Name
  ,                                       !- Default Schedule Set Name
  ,                                       !- Direction of Relative North {deg}
  ,                                       !- X Origin {m}
  ,                                       !- Y Origin {m}
  ,                                       !- Z Origin {m}
  ,                                       !- Building Story Name
  {6671a7c1-dc83-49f6-83e2-b928fadad66b}, !- Thermal Zone Name
  ,                                       !- Part of Total Floor Area
  ,                                       !- Design Specification Outdoor Air Object Name
  ,                                       !- Building Unit Name
  692.06373070848;                        !- Volume {m3}

OS:Schedule:Ruleset,
  {2f18b030-bf7c-4f90-bc4a-29d17645cc5e}, !- Handle
  heating setpoint,                       !- Name
  {da3aebe8-232c-4165-990d-ea0497a992b4}, !- Schedule Type Limits Name
  {bf61abb9-aef3-4e52-9a58-e490e5be7515}; !- Default Day Schedule Name

OS:Schedule:Day,
  {bf61abb9-aef3-4e52-9a58-e490e5be7515}, !- Handle
  heating setpoint default day,           !- Name
  {da3aebe8-232c-4165-990d-ea0497a992b4}, !- Schedule Type Limits Name
  ,                                       !- Interpolate to Timestep
  24,                                     !- Hour 1
  0,                                      !- Minute 1
  0;                                      !- Value Until Time 1

OS:Schedule:Rule,
  {d70cda3a-7205-4722-bcef-48e940f6fad5}, !- Handle
  heating setpoint allday rule,           !- Name
  {2f18b030-bf7c-4f90-bc4a-29d17645cc5e}, !- Schedule Ruleset Name
  0,                                      !- Rule Order
  {d6e09ca6-933c-4aea-916f-c0b9aa85674c}, !- Day Schedule Name
  Yes,                                    !- Apply Sunday
  Yes,                                    !- Apply Monday
  Yes,                                    !- Apply Tuesday
  Yes,                                    !- Apply Wednesday
  Yes,                                    !- Apply Thursday
  Yes,                                    !- Apply Friday
  Yes,                                    !- Apply Saturday
  DateRange,                              !- Date Specification Type
  1,                                      !- Start Month
  1,                                      !- Start Day
  12,                                     !- End Month
  31;                                     !- End Day

OS:Schedule:Day,
  {d6e09ca6-933c-4aea-916f-c0b9aa85674c}, !- Handle
  heating setpoint day,                   !- Name
  {da3aebe8-232c-4165-990d-ea0497a992b4}, !- Schedule Type Limits Name
  ,                                       !- Interpolate to Timestep
  24,                                     !- Hour 1
  0,                                      !- Minute 1
  20;                                     !- Value Until Time 1

OS:Schedule:Ruleset,
  {ed83184a-6d16-4c2a-8dfc-18a7af7e5d92}, !- Handle
  cooling setpoint,                       !- Name
  {da3aebe8-232c-4165-990d-ea0497a992b4}, !- Schedule Type Limits Name
  {4f64883f-3120-4897-ad34-3c9d7faa9208}; !- Default Day Schedule Name

OS:Schedule:Day,
  {4f64883f-3120-4897-ad34-3c9d7faa9208}, !- Handle
  cooling setpoint default day,           !- Name
  {da3aebe8-232c-4165-990d-ea0497a992b4}, !- Schedule Type Limits Name
  ,                                       !- Interpolate to Timestep
  24,                                     !- Hour 1
  0,                                      !- Minute 1
  0;                                      !- Value Until Time 1

OS:Schedule:Rule,
  {b8dfebd4-f250-4a97-ac62-3ec2607dee77}, !- Handle
  cooling setpoint allday rule,           !- Name
  {ed83184a-6d16-4c2a-8dfc-18a7af7e5d92}, !- Schedule Ruleset Name
  0,                                      !- Rule Order
  {83974a95-4400-46d7-9282-752b290a4fbe}, !- Day Schedule Name
  Yes,                                    !- Apply Sunday
  Yes,                                    !- Apply Monday
  Yes,                                    !- Apply Tuesday
  Yes,                                    !- Apply Wednesday
  Yes,                                    !- Apply Thursday
  Yes,                                    !- Apply Friday
  Yes,                                    !- Apply Saturday
  DateRange,                              !- Date Specification Type
  1,                                      !- Start Month
  1,                                      !- Start Day
  12,                                     !- End Month
  31;                                     !- End Day

OS:Schedule:Day,
  {83974a95-4400-46d7-9282-752b290a4fbe}, !- Handle
  cooling setpoint day,                   !- Name
  {da3aebe8-232c-4165-990d-ea0497a992b4}, !- Schedule Type Limits Name
  ,                                       !- Interpolate to Timestep
  24,                                     !- Hour 1
  0,                                      !- Minute 1
  25.5555555555556;                       !- Value Until Time 1

OS:ThermostatSetpoint:DualSetpoint,
  {4b0b320c-1bb3-4a62-bf4b-3773b96a96d7}, !- Handle
  conditioned space temperature setpoint, !- Name
  {2f18b030-bf7c-4f90-bc4a-29d17645cc5e}, !- Heating Setpoint Temperature Schedule Name
  {ed83184a-6d16-4c2a-8dfc-18a7af7e5d92}, !- Cooling Setpoint Temperature Schedule Name
  0;                                      !- Temperature Difference Between Cutout And Setpoint {deltaC}

OS:ScheduleTypeLimits,
  {da3aebe8-232c-4165-990d-ea0497a992b4}, !- Handle
  Temperature,                            !- Name
  ,                                       !- Lower Limit Value
  ,                                       !- Upper Limit Value
  Continuous,                             !- Numeric Type
  Temperature;                            !- Unit Type

OS:Surface,
  {6c21c80b-7904-4d8a-9672-0f1dd6de1600}, !- Handle
  Roof1,                                  !- Name
  RoofCeiling,                            !- Surface Type
  {8d11cbeb-76b1-4222-a34b-d96b28d6d349}, !- Construction Name
  {89ab0cfa-3719-4f7f-81f2-8710b61a1117}, !- Space Name
  Outdoors,                               !- Outside Boundary Condition
  ,                                       !- Outside Boundary Condition Object
  SunExposed,                             !- Sun Exposure
  WindExposed,                            !- Wind Exposure
  ,                                       !- View Factor to Ground
  ,                                       !- Number of Vertices
  11.1065013252255, 23.7025249720753, 2.4384, !- X,Y,Z Vertex 1 {m}
  11.1065013252255, 12.4362989238549, 8.0715130241102, !- X,Y,Z Vertex 2 {m}
  23.7025249720753, 12.4362989238549, 8.0715130241102, !- X,Y,Z Vertex 3 {m}
  23.7025249720753, 23.7025249720753, 2.4384; !- X,Y,Z Vertex 4 {m}

OS:AdditionalProperties,
  {7ee3068f-2551-4ec4-8558-3b12f40d0a4f}, !- Handle
  {6c21c80b-7904-4d8a-9672-0f1dd6de1600}, !- Object Name
  Length,                                 !- Feature Name 1
  Double,                                 !- Feature Data Type 1
  41.325536899113608,                     !- Feature Value 1
  Width,                                  !- Feature Name 2
  Double,                                 !- Feature Data Type 2
  41.325536899113601,                     !- Feature Value 2
  Azimuth,                                !- Feature Name 3
  Integer,                                !- Feature Data Type 3
  0,                                      !- Feature Value 3
  Tilt,                                   !- Feature Name 4
  Double,                                 !- Feature Data Type 4
  0.5,                                    !- Feature Value 4
  SurfaceType,                            !- Feature Name 5
  String,                                 !- Feature Data Type 5
  Roof;                                   !- Feature Value 5

OS:ThermalZone,
  {b099c936-c244-41bd-96e6-d155df6213ce}, !- Handle
  attic - vented,                         !- Name
  1,                                      !- Multiplier
  ,                                       !- Ceiling Height {m}
  443.601251426534,                       !- Volume {m3}
  ,                                       !- Floor Area {m2}
  ,                                       !- Zone Inside Convection Algorithm
  ,                                       !- Zone Outside Convection Algorithm
  ,                                       !- Zone Conditioning Equipment List Name
  {eb4652f9-a855-4946-a78f-28a96ce2bdd6}, !- Zone Air Inlet Port List
  {018bba9e-edbc-4ea5-8bf9-1ced9a1a977f}, !- Zone Air Exhaust Port List
  {672424af-5757-449e-ab4b-3f2a56bb1297}, !- Zone Air Node Name
  {801b5545-c6b3-4e7f-865d-e3abfa47e33d}, !- Zone Return Air Port List
  ,                                       !- Primary Daylighting Control Name
  ,                                       !- Fraction of Zone Controlled by Primary Daylighting Control
  ,                                       !- Secondary Daylighting Control Name
  ,                                       !- Fraction of Zone Controlled by Secondary Daylighting Control
  ,                                       !- Illuminance Map Name
  ,                                       !- Group Rendering Name
  ,                                       !- Thermostat Name
  No;                                     !- Use Ideal Air Loads

OS:Node,
  {859f0e7b-dc2a-4909-8283-a5d425e849f8}, !- Handle
  Node 2,                                 !- Name
  {672424af-5757-449e-ab4b-3f2a56bb1297}, !- Inlet Port
  ;                                       !- Outlet Port

OS:Connection,
  {672424af-5757-449e-ab4b-3f2a56bb1297}, !- Handle
  {b099c936-c244-41bd-96e6-d155df6213ce}, !- Source Object
  11,                                     !- Outlet Port
  {859f0e7b-dc2a-4909-8283-a5d425e849f8}, !- Target Object
  2;                                      !- Inlet Port

OS:PortList,
  {eb4652f9-a855-4946-a78f-28a96ce2bdd6}, !- Handle
  {b099c936-c244-41bd-96e6-d155df6213ce}; !- HVAC Component

OS:PortList,
  {018bba9e-edbc-4ea5-8bf9-1ced9a1a977f}, !- Handle
  {b099c936-c244-41bd-96e6-d155df6213ce}; !- HVAC Component

OS:PortList,
  {801b5545-c6b3-4e7f-865d-e3abfa47e33d}, !- Handle
  {b099c936-c244-41bd-96e6-d155df6213ce}; !- HVAC Component

OS:Sizing:Zone,
  {18ed61ed-94ee-4bde-96e7-f1f8b3a9b80d}, !- Handle
  {b099c936-c244-41bd-96e6-d155df6213ce}, !- Zone or ZoneList Name
  SupplyAirTemperature,                   !- Zone Cooling Design Supply Air Temperature Input Method
  14,                                     !- Zone Cooling Design Supply Air Temperature {C}
  11.11,                                  !- Zone Cooling Design Supply Air Temperature Difference {deltaC}
  SupplyAirTemperature,                   !- Zone Heating Design Supply Air Temperature Input Method
  40,                                     !- Zone Heating Design Supply Air Temperature {C}
  11.11,                                  !- Zone Heating Design Supply Air Temperature Difference {deltaC}
  0.0085,                                 !- Zone Cooling Design Supply Air Humidity Ratio {kg-H2O/kg-air}
  0.008,                                  !- Zone Heating Design Supply Air Humidity Ratio {kg-H2O/kg-air}
  ,                                       !- Zone Heating Sizing Factor
  ,                                       !- Zone Cooling Sizing Factor
  DesignDay,                              !- Cooling Design Air Flow Method
  ,                                       !- Cooling Design Air Flow Rate {m3/s}
  ,                                       !- Cooling Minimum Air Flow per Zone Floor Area {m3/s-m2}
  ,                                       !- Cooling Minimum Air Flow {m3/s}
  ,                                       !- Cooling Minimum Air Flow Fraction
  DesignDay,                              !- Heating Design Air Flow Method
  ,                                       !- Heating Design Air Flow Rate {m3/s}
  ,                                       !- Heating Maximum Air Flow per Zone Floor Area {m3/s-m2}
  ,                                       !- Heating Maximum Air Flow {m3/s}
  ,                                       !- Heating Maximum Air Flow Fraction
  No,                                     !- Account for Dedicated Outdoor Air System
  NeutralSupplyAir,                       !- Dedicated Outdoor Air System Control Strategy
  autosize,                               !- Dedicated Outdoor Air Low Setpoint Temperature for Design {C}
  autosize,                               !- Dedicated Outdoor Air High Setpoint Temperature for Design {C}
  Sensible Load Only No Latent Load,      !- Zone Load Sizing Method
  HumidityRatioDifference,                !- Zone Latent Cooling Design Supply Air Humidity Ratio Input Method
  ,                                       !- Zone Dehumidification Design Supply Air Humidity Ratio {kgWater/kgDryAir}
  0.005,                                  !- Zone Cooling Design Supply Air Humidity Ratio Difference {kgWater/kgDryAir}
  HumidityRatioDifference,                !- Zone Latent Heating Design Supply Air Humidity Ratio Input Method
  ,                                       !- Zone Humidification Design Supply Air Humidity Ratio {kgWater/kgDryAir}
  0.005,                                  !- Zone Humidification Design Supply Air Humidity Ratio Difference {kgWater/kgDryAir}
  ,                                       !- Zone Humidistat Dehumidification Set Point Schedule Name
  ,                                       !- Zone Humidistat Humidification Set Point Schedule Name
  ,                                       !- Design Zone Air Distribution Effectiveness in Cooling Mode
  ,                                       !- Design Zone Air Distribution Effectiveness in Heating Mode
  ,                                       !- Design Zone Secondary Recirculation Fraction {dimensionless}
  ,                                       !- Design Minimum Zone Ventilation Efficiency {dimensionless}
  Coincident;                             !- Sizing Option

OS:ZoneHVAC:EquipmentList,
  {82b908f1-a86c-4ec6-9aa2-bf426ef7b84c}, !- Handle
  Zone HVAC Equipment List 2,             !- Name
  {b099c936-c244-41bd-96e6-d155df6213ce}; !- Thermal Zone

OS:AdditionalProperties,
  {afa163d9-5856-419f-a29e-8cfed9e36b14}, !- Handle
  {b099c936-c244-41bd-96e6-d155df6213ce}, !- Object Name
  ObjectType,                             !- Feature Name 1
  String,                                 !- Feature Data Type 1
  attic - vented;                         !- Feature Value 1

OS:Space,
  {89ab0cfa-3719-4f7f-81f2-8710b61a1117}, !- Handle
  attic - vented 1,                       !- Name
  ,                                       !- Space Type Name
  ,                                       !- Default Construction Set Name
  ,                                       !- Default Schedule Set Name
  ,                                       !- Direction of Relative North {deg}
  ,                                       !- X Origin {m}
  ,                                       !- Y Origin {m}
  ,                                       !- Z Origin {m}
  ,                                       !- Building Story Name
  {b099c936-c244-41bd-96e6-d155df6213ce}, !- Thermal Zone Name
  ,                                       !- Part of Total Floor Area
  ,                                       !- Design Specification Outdoor Air Object Name
  ,                                       !- Building Unit Name
  443.601251426534;                       !- Volume {m3}

OS:Material,
  {14d1fc38-b737-444e-92e1-56c5e8707ea0}, !- Handle
  asphalt or fiberglass shingles,         !- Name
  Rough,                                  !- Roughness
  0.00635,                                !- Thickness {m}
  0.162714,                               !- Conductivity {W/m-K}
  1121.4,                                 !- Density {kg/m3}
  1465.45,                                !- Specific Heat {J/kg-K}
  0.9,                                    !- Thermal Absorptance
  0.85,                                   !- Solar Absorptance