
OS:Version,
  {8a8e8378-f0e1-411b-bab1-4165be17abe1}, !- Handle
  3.10.0;                                 !- Version Identifier

OS:SimulationControl,
  {a390f76e-188d-4ed7-8b04-79cdbd5fb358}, !- Handle
  ,                                       !- Do Zone Sizing Calculation
  ,                                       !- Do System Sizing Calculation
  ,                                       !- Do Plant Sizing Calculation
  No;                                     !- Run Simulation for Sizing Periods

OS:Timestep,
  {cf8dd84e-64f1-460a-bebe-169d138337a3}, !- Handle
  1;                                      !- Number of Timesteps per Hour

OS:ShadowCalculation,
  {e7cda57c-d86a-46ec-bae5-42720f9b52e1}, !- Handle
  PolygonClipping,                        !- Shading Calculation Method
  ,                                       !- Shading Calculation Update Frequency Method
  20,                                     !- Shading Calculation Update Frequency
  200,                                    !- Maximum Figures in Shadow Overlap Calculations
  ,                                       !- Polygon Clipping Algorithm
  512,                                    !- Pixel Counting Resolution
  ,                                       !- Sky Diffuse Modeling Algorithm
  No,                                     !- Output External Shading Calculation Results
  No,                                     !- Disable Self-Shading Within Shading Zone Groups
  No;                                     !- Disable Self-Shading From Shading Zone Groups to Other Zones

OS:SurfaceConvectionAlgorithm:Outside,
  {81da1b1c-64c4-40cf-9e8d-4528a45adbb7}, !- Handle
  DOE-2;                                  !- Algorithm

OS:SurfaceConvectionAlgorithm:Inside,
  {153f7b42-7e54-40b5-af40-074b4eb8637f}, !- Handle
  TARP;                                   !- Algorithm

OS:ZoneCapacitanceMultiplier:ResearchSpecial,
  {48fcc180-8e9b-43b8-96ea-409137f0d51a}, !- Handle
  7,                                      !- Temperature Capacity Multiplier
  15,                                     !- Humidity Capacity Multiplier
  ;                                       !- Carbon Dioxide Capacity Multiplier

OS:ConvergenceLimits,
  {389d5672-5e17-4b79-9bad-de9e95c7eafa}, !- Handle
  0;                                      !- Minimum System Timestep {minutes}

OS:RunPeriod,
  {47e7d4b2-89ba-4a70-b687-6ad902e4f7b7}, !- Handle
  Run Period 1,                           !- Name
  1,                                      !- Begin Month
  1,                                      !- Begin Day of Month
  12,                                     !- End Month
  31,                                     !- End Day of Month
  ,                                       !- Use Weather File Holidays and Special Days
  ,                                       !- Use Weather File Daylight Saving Period
  ,                                       !- Apply Weekend Holiday Rule
  ,                                       !- Use Weather File Rain Indicators
  ,                                       !- Use Weather File Snow Indicators
  ;                                       !- Number of Times Runperiod to be Repeated

OS:PerformancePrecisionTradeoffs,
  {0b821046-4fdb-42fc-a0ce-d4156d239181}, !- Handle
  ,                                       !- Use Coil Direct Solutions
  CarrollMRT;                             !- Zone Radiant Exchange Algorithm

OS:WeatherFile,
  {fe78df32-c93b-422c-bf9f-a120e3021d19}, !- Handle
  Buffalo Niagara Intl Ap,                !- City
  NY,                                     !- State Province Region
  USA,                                    !- Country
  TMY3,                                   !- Data Source
  725280,                                 !- WMO Number
  42.93,                                  !- Latitude {deg}
  -78.73,                                 !- Longitude {deg}
  -5,                                     !- Time Zone {hr}
  215,                                    !- Elevation {m}
  /Users/nmoore/github/urbanopt-example-geojson-project/example_project/weather/USA_NY_Buffalo-Greater.Buffalo.Intl.AP.725280_TMY3.epw, !- Url
  6B50E0FF,                               !- Checksum
  ,                                       !- Start Date Actual Year
  Sunday;                                 !- Start Day of Week

OS:YearDescription,
  {8b43eb6d-74ce-46b0-bd6a-1214365c74d9}, !- Handle
  2007,                                   !- Calendar Year
  ,                                       !- Day of Week for Start Day
  ;                                       !- Is Leap Year

OS:Site,
  {b0edbbd8-c67e-4ed7-8502-fab97b506f8e}, !- Handle
  Buffalo Niagara Intl Ap_NY,             !- Name
  42.93,                                  !- Latitude {deg}
  -78.73,                                 !- Longitude {deg}
  -5,                                     !- Time Zone {hr}
  215,                                    !- Elevation {m}
  Suburbs,                                !- Terrain
  Yes;                                    !- Keep Site Location Information

OS:RunPeriodControl:DaylightSavingTime,
  {c0034394-4250-4430-badb-826b26ef6b4b}, !- Handle
  Mar 12,                                 !- Start Date
  Nov 5;                                  !- End Date

OS:Site:GroundTemperature:Shallow,
  {cc9cd030-04c8-4d4b-aeed-9944f36c576f}, !- Handle
  4.30207395723828,                       !- January Surface Ground Temperature {C}
  2.29327249652502,                       !- February Surface Ground Temperature {C}
  2.13240047156047,                       !- March Surface Ground Temperature {C}
  3.08567940719286,                       !- April Surface Ground Temperature {C}
  6.91256312497526,                       !- May Surface Ground Temperature {C}
  10.7216195949507,                       !- June Surface Ground Temperature {C}
  14.0238679822574,                       !- July Surface Ground Temperature {C}
  16.1157611184724,                       !- August Surface Ground Temperature {C}
  16.2934789303462,                       !- September Surface Ground Temperature {C}
  14.5920754632847,                       !- October Surface Ground Temperature {C}
  11.374036348653,                        !- November Surface Ground Temperature {C}
  7.68182621661674;                       !- December Surface Ground Temperature {C}

OS:ThermalZone,
  {c1b3468a-423f-437c-9818-818b5b700229}, !- Handle
  conditioned space,                      !- Name
  1,                                      !- Multiplier
  ,                                       !- Ceiling Height {m}
  951.587629724161,                       !- Volume {m3}
  ,                                       !- Floor Area {m2}
  ,                                       !- Zone Inside Convection Algorithm
  ,                                       !- Zone Outside Convection Algorithm
  ,                                       !- Zone Conditioning Equipment List Name
  {6099a195-0bc1-4927-8912-c9571d28902c}, !- Zone Air Inlet Port List
  {a68386e1-0681-49d4-8cf6-9ece18e45446}, !- Zone Air Exhaust Port List
  {03748f35-5ba6-4405-adf9-61ff1cdfda58}, !- Zone Air Node Name
  {a759ee79-be43-4c49-a8cb-6f4cb2c7716e}, !- Zone Return Air Port List
  ,                                       !- Primary Daylighting Control Name
  ,                                       !- Fraction of Zone Controlled by Primary Daylighting Control
  ,                                       !- Secondary Daylighting Control Name
  ,                                       !- Fraction of Zone Controlled by Secondary Daylighting Control
  ,                                       !- Illuminance Map Name
  ,                                       !- Group Rendering Name
  {444e9161-e7fb-48dd-abf9-66d47b2cddf1}, !- Thermostat Name
  No;                                     !- Use Ideal Air Loads

OS:Node,
  {fbb2ac2e-efb0-4f8c-8976-38ea7c2cd157}, !- Handle
  Node 1,                                 !- Name
  {03748f35-5ba6-4405-adf9-61ff1cdfda58}, !- Inlet Port
  ;                                       !- Outlet Port

OS:Connection,
  {03748f35-5ba6-4405-adf9-61ff1cdfda58}, !- Handle
  {c1b3468a-423f-437c-9818-818b5b700229}, !- Source Object
  11,                                     !- Outlet Port
  {fbb2ac2e-efb0-4f8c-8976-38ea7c2cd157}, !- Target Object
  2;                                      !- Inlet Port

OS:PortList,
  {6099a195-0bc1-4927-8912-c9571d28902c}, !- Handle
  {c1b3468a-423f-437c-9818-818b5b700229}, !- HVAC Component
  {c15d7f7b-68dc-4503-988d-bdfae0ec969b}; !- Port 1

OS:PortList,
  {a68386e1-0681-49d4-8cf6-9ece18e45446}, !- Handle
  {c1b3468a-423f-437c-9818-818b5b700229}; !- HVAC Component

OS:PortList,
  {a759ee79-be43-4c49-a8cb-6f4cb2c7716e}, !- Handle
  {c1b3468a-423f-437c-9818-818b5b700229}, !- HVAC Component
  {1eb487d4-2ae5-46a0-9811-3939cc51e4d7}; !- Port 1

OS:Sizing:Zone,
  {9461bea7-989b-4948-9422-67a83a094127}, !- Handle
  {c1b3468a-423f-437c-9818-818b5b700229}, !- Zone or ZoneList Name
  SupplyAirTemperature,                   !- Zone Cooling Design Supply Air Temperature Input Method
  14,                                     !- Zone Cooling Design Supply Air Temperature {C}
  11.11,                                  !- Zone Cooling Design Supply Air Temperature Difference {deltaC}
  SupplyAirTemperature,                   !- Zone Heating Design Supply Air Temperature Input Method
  40,                                     !- Zone Heating Design Supply Air Temperature {C}
  11.11,                                  !- Zone Heating Design Supply Air Temperature Difference {deltaC}
  0.0085,                                 !- Zone Cooling Design Supply Air Humidity Ratio {kg-H2O/kg-air}
  0.008,                                  !- Zone Heating Design Supply Air Humidity Ratio {kg-H2O/kg-air}
  ,                                       !- Zone Heating Sizing Factor
  ,                                       !- Zone Cooling Sizing Factor
  DesignDay,                              !- Cooling Design Air Flow Method
  ,                                       !- Cooling Design Air Flow Rate {m3/s}
  ,                                       !- Cooling Minimum Air Flow per Zone Floor Area {m3/s-m2}
  ,                                       !- Cooling Minimum Air Flow {m3/s}
  ,                                       !- Cooling Minimum Air Flow Fraction
  DesignDay,                              !- Heating Design Air Flow Method
  ,                                       !- Heating Design Air Flow Rate {m3/s}
  ,                                       !- Heating Maximum Air Flow per Zone Floor Area {m3/s-m2}
  ,                                       !- Heating Maximum Air Flow {m3/s}
  ,                                       !- Heating Maximum Air Flow Fraction
  No,                                     !- Account for Dedicated Outdoor Air System
  NeutralSupplyAir,                       !- Dedicated Outdoor Air System Control Strategy
  autosize,                               !- Dedicated Outdoor Air Low Setpoint Temperature for Design {C}
  autosize,                               !- Dedicated Outdoor Air High Setpoint Temperature for Design {C}
  Sensible Load Only No Latent Load,      !- Zone Load Sizing Method
  HumidityRatioDifference,                !- Zone Latent Cooling Design Supply Air Humidity Ratio Input Method
  ,                                       !- Zone Dehumidification Design Supply Air Humidity Ratio {kgWater/kgDryAir}
  0.005,                                  !- Zone Cooling Design Supply Air Humidity Ratio Difference {kgWater/kgDryAir}
  HumidityRatioDifference,                !- Zone Latent Heating Design Supply Air Humidity Ratio Input Method
  ,                                       !- Zone Humidification Design Supply Air Humidity Ratio {kgWater/kgDryAir}
  0.005,                                  !- Zone Humidification Design Supply Air Humidity Ratio Difference {kgWater/kgDryAir}
  ,                                       !- Zone Humidistat Dehumidification Set Point Schedule Name
  ,                                       !- Zone Humidistat Humidification Set Point Schedule Name
  ,                                       !- Design Zone Air Distribution Effectiveness in Cooling Mode
  ,                                       !- Design Zone Air Distribution Effectiveness in Heating Mode
  ,                                       !- Design Zone Secondary Recirculation Fraction {dimensionless}
  ,                                       !- Design Minimum Zone Ventilation Efficiency {dimensionless}
  Coincident;                             !- Sizing Option

OS:ZoneHVAC:EquipmentList,
  {0e5dd854-cf0a-4cdb-baf9-143386481d2b}, !- Handle
  Zone HVAC Equipment List 1,             !- Name
  {c1b3468a-423f-437c-9818-818b5b700229}, !- Thermal Zone
  ,                                       !- Load Distribution Scheme
  {d1a4257d-a6f9-483f-9ffe-89d2b07e6f8a}, !- Zone Equipment 1
  1,                                      !- Zone Equipment Cooling Sequence 1
  1,                                      !- Zone Equipment Heating or No-Load Sequence 1
  {2be64d78-2ac0-4125-bef4-4b7e4139a29c}, !- Zone Equipment Sequential Cooling Fraction Schedule Name 1
  {5d4c5352-6e38-4b38-aef0-7daa896e9832}; !- Zone Equipment Sequential Heating Fraction Schedule Name 1

OS:AdditionalProperties,
  {6669b794-cf0a-4325-81d1-c72e8caa55f3}, !- Handle
  {c1b3468a-423f-437c-9818-818b5b700229}, !- Object Name
  ObjectType,                             !- Feature Name 1
  String,                                 !- Feature Data Type 1
  conditioned space;                      !- Feature Value 1

OS:Space,
  {5c18457b-e42f-4240-97fe-92588a79ca17}, !- Handle
  conditioned space 1,                    !- Name
  ,                                       !- Space Type Name
  ,                                       !- Default Construction Set Name
  ,                                       !- Default Schedule Set Name
  ,                                       !- Direction of Relative North {deg}
  ,                                       !- X Origin {m}
  ,                                       !- Y Origin {m}
  ,                                       !- Z Origin {m}
  ,                                       !- Building Story Name
  {c1b3468a-423f-437c-9818-818b5b700229}, !- Thermal Zone Name
  ,                                       !- Part of Total Floor Area
  ,                                       !- Design Specification Outdoor Air Object Name
  ,                                       !- Building Unit Name
  951.587629724161;                       !- Volume {m3}

OS:Schedule:Ruleset,
  {e11fa33f-4061-4f3a-8e63-86539ea9d926}, !- Handle
  heating setpoint,                       !- Name
  {26a9f909-ab11-453d-8cb9-98f5d605581c}, !- Schedule Type Limits Name
  {6e5a137c-3c84-4944-bf31-6a705f8a4d20}; !- Default Day Schedule Name

OS:Schedule:Day,
  {6e5a137c-3c84-4944-bf31-6a705f8a4d20}, !- Handle
  heating setpoint default day,           !- Name
  {26a9f909-ab11-453d-8cb9-98f5d605581c}, !- Schedule Type Limits Name
  ,                                       !- Interpolate to Timestep
  24,                                     !- Hour 1
  0,                                      !- Minute 1
  0;                                      !- Value Until Time 1

OS:Schedule:Rule,
  {7bc5fc9e-c77f-4220-885d-d26b6602a44d}, !- Handle
  heating setpoint allday rule,           !- Name
  {e11fa33f-4061-4f3a-8e63-86539ea9d926}, !- Schedule Ruleset Name
  0,                                      !- Rule Order
  {3ad468d7-39f1-4b70-ba95-3bd7d60929d3}, !- Day Schedule Name
  Yes,                                    !- Apply Sunday
  Yes,                                    !- Apply Monday
  Yes,                                    !- Apply Tuesday
  Yes,                                    !- Apply Wednesday
  Yes,                                    !- Apply Thursday
  Yes,                                    !- Apply Friday
  Yes,                                    !- Apply Saturday
  DateRange,                              !- Date Specification Type
  1,                                      !- Start Month
  1,                                      !- Start Day
  12,                                     !- End Month
  31;                                     !- End Day

OS:Schedule:Day,
  {3ad468d7-39f1-4b70-ba95-3bd7d60929d3}, !- Handle
  heating setpoint day,                   !- Name
  {26a9f909-ab11-453d-8cb9-98f5d605581c}, !- Schedule Type Limits Name
  ,                                       !- Interpolate to Timestep
  24,                                     !- Hour 1
  0,                                      !- Minute 1
  20;                                     !- Value Until Time 1

OS:Schedule:Ruleset,
  {7a79fe92-ba14-46fa-ad2a-498d97b74b78}, !- Handle
  cooling setpoint,                       !- Name
  {26a9f909-ab11-453d-8cb9-98f5d605581c}, !- Schedule Type Limits Name
  {f97f7e74-7d62-436b-ba6e-5a39276e6351}; !- Default Day Schedule Name

OS:Schedule:Day,
  {f97f7e74-7d62-436b-ba6e-5a39276e6351}, !- Handle
  cooling setpoint default day,           !- Name
  {26a9f909-ab11-453d-8cb9-98f5d605581c}, !- Schedule Type Limits Name
  ,                                       !- Interpolate to Timestep
  24,                                     !- Hour 1
  0,                                      !- Minute 1
  0;                                      !- Value Until Time 1

OS:Schedule:Rule,
  {12510f4b-7af7-4f94-8fb3-dbdf43ba73a2}, !- Handle
  cooling setpoint allday rule,           !- Name
  {7a79fe92-ba14-46fa-ad2a-498d97b74b78}, !- Schedule Ruleset Name
  0,                                      !- Rule Order
  {ee321277-474c-44ca-b42a-da6a1702291a}, !- Day Schedule Name
  Yes,                                    !- Apply Sunday
  Yes,                                    !- Apply Monday
  Yes,                                    !- Apply Tuesday
  Yes,                                    !- Apply Wednesday
  Yes,                                    !- Apply Thursday
  Yes,                                    !- Apply Friday
  Yes,                                    !- Apply Saturday
  DateRange,                              !- Date Specification Type
  1,                                      !- Start Month
  1,                                      !- Start Day
  12,                                     !- End Month
  31;                                     !- End Day

OS:Schedule:Day,
  {ee321277-474c-44ca-b42a-da6a1702291a}, !- Handle
  cooling setpoint day,                   !- Name
  {26a9f909-ab11-453d-8cb9-98f5d605581c}, !- Schedule Type Limits Name
  ,                                       !- Interpolate to Timestep
  24,                                     !- Hour 1
  0,                                      !- Minute 1
  25.5555555555556;                       !- Value Until Time 1

OS:ThermostatSetpoint:DualSetpoint,
  {444e9161-e7fb-48dd-abf9-66d47b2cddf1}, !- Handle
  conditioned space temperature setpoint, !- Name
  {e11fa33f-4061-4f3a-8e63-86539ea9d926}, !- Heating Setpoint Temperature Schedule Name
  {7a79fe92-ba14-46fa-ad2a-498d97b74b78}, !- Cooling Setpoint Temperature Schedule Name
  0;                                      !- Temperature Difference Between Cutout And Setpoint {deltaC}

OS:ScheduleTypeLimits,
  {26a9f909-ab11-453d-8cb9-98f5d605581c}, !- Handle
  Temperature,                            !- Name
  ,                                       !- Lower Limit Value
  ,                                       !- Upper Limit Value
  Continuous,                             !- Numeric Type
  Temperature;                            !- Unit Type

OS:Surface,
  {2b86f419-7b8a-4af9-9ce9-c0ddbf135941}, !- Handle
  Roof1,                                  !- Name
  RoofCeiling,                            !- Surface Type
  {01b428b2-9943-42e6-993d-bd44ebfa8601}, !- Construction Name
  {b23db68f-6424-4793-9bf6-1bffb31afa39}, !- Space Name
  Outdoors,                               !- Outside Boundary Condition
  ,                                       !- Outside Boundary Condition Object
  SunExposed,                             !- Sun Exposure
  WindExposed,                            !- Wind Exposure
  ,                                       !- View Factor to Ground
  ,                                       !- Number of Vertices
  -26.9347048849634, 58.0557891618865, 2.4384, !- X,Y,Z Vertex 1 {m}
  -26.9347048849634, 46.7895631136661, 8.0715130241102, !- X,Y,Z Vertex 2 {m}
  -14.3386812381136, 46.7895631136661, 8.0715130241102, !- X,Y,Z Vertex 3 {m}
  -14.3386812381136, 58.0557891618865, 2.4384; !- X,Y,Z Vertex 4 {m}

OS:AdditionalProperties,
  {6000b186-f616-47d8-b85c-6c9485bfca1e}, !- Handle
  {2b86f419-7b8a-4af9-9ce9-c0ddbf135941}, !- Object Name
  Length,                                 !- Feature Name 1
  Double,                                 !- Feature Data Type 1
  41.325536899113608,                     !- Feature Value 1
  Width,                                  !- Feature Name 2
  Double,                                 !- Feature Data Type 2
  41.325536899113601,                     !- Feature Value 2
  Azimuth,                                !- Feature Name 3
  Integer,                                !- Feature Data Type 3
  0,                                      !- Feature Value 3
  Tilt,                                   !- Feature Name 4
  Double,                                 !- Feature Data Type 4
  0.5,                                    !- Feature Value 4
  SurfaceType,                            !- Feature Name 5
  String,                                 !- Feature Data Type 5
  Roof;                                   !- Feature Value 5

OS:ThermalZone,
  {c8374e46-3b8f-48b2-9d7c-21c4c27b87fd}, !- Handle
  attic - vented,                         !- Name
  1,                                      !- Multiplier
  ,                                       !- Ceiling Height {m}
  356.390921899745,                       !- Volume {m3}
  ,                                       !- Floor Area {m2}
  ,                                       !- Zone Inside Convection Algorithm
  ,                                       !- Zone Outside Convection Algorithm
  ,                                       !- Zone Conditioning Equipment List Name
  {e688b7aa-ea11-4a3d-96db-7764ad4b81e2}, !- Zone Air Inlet Port List
  {a8deee38-2293-4e6d-827e-ca8f9d7a0756}, !- Zone Air Exhaust Port List
  {0ddbfacd-c05b-4261-8edf-4cc0cae5b0a8}, !- Zone Air Node Name
  {95e9ad1c-c0f3-4ea7-96e4-f0efb1bb2021}, !- Zone Return Air Port List
  ,                                       !- Primary Daylighting Control Name
  ,                                       !- Fraction of Zone Controlled by Primary Daylighting Control
  ,                                       !- Secondary Daylighting Control Name
  ,                                       !- Fraction of Zone Controlled by Secondary Daylighting Control
  ,                                       !- Illuminance Map Name
  ,                                       !- Group Rendering Name
  ,                                       !- Thermostat Name
  No;                                     !- Use Ideal Air Loads

OS:Node,
  {b2b65f8f-84f9-499f-9e00-0dbaf0da3d5a}, !- Handle
  Node 2,                                 !- Name
  {0ddbfacd-c05b-4261-8edf-4cc0cae5b0a8}, !- Inlet Port
  ;                                       !- Outlet Port

OS:Connection,
  {0ddbfacd-c05b-4261-8edf-4cc0cae5b0a8}, !- Handle
  {c8374e46-3b8f-48b2-9d7c-21c4c27b87fd}, !- Source Object
  11,                                     !- Outlet Port
  {b2b65f8f-84f9-499f-9e00-0dbaf0da3d5a}, !- Target Object
  2;                                      !- Inlet Port

OS:PortList,
  {e688b7aa-ea11-4a3d-96db-7764ad4b81e2}, !- Handle
  {c8374e46-3b8f-48b2-9d7c-21c4c27b87fd}; !- HVAC Component

OS:PortList,
  {a8deee38-2293-4e6d-827e-ca8f9d7a0756}, !- Handle
  {c8374e46-3b8f-48b2-9d7c-21c4c27b87fd}; !- HVAC Component

OS:PortList,
  {95e9ad1c-c0f3-4ea7-96e4-f0efb1bb2021}, !- Handle
  {c8374e46-3b8f-48b2-9d7c-21c4c27b87fd}; !- HVAC Component

OS:Sizing:Zone,
  {a91d4266-ea9e-4424-bac7-a8d705acf863}, !- Handle
  {c8374e46-3b8f-48b2-9d7c-21c4c27b87fd}, !- Zone or ZoneList Name
  SupplyAirTemperature,                   !- Zone Cooling Design Supply Air Temperature Input Method
  14,                                     !- Zone Cooling Design Supply Air Temperature {C}
  11.11,                                  !- Zone Cooling Design Supply Air Temperature Difference {deltaC}
  SupplyAirTemperature,                   !- Zone Heating Design Supply Air Temperature Input Method
  40,                                     !- Zone Heating Design Supply Air Temperature {C}
  11.11,                                  !- Zone Heating Design Supply Air Temperature Difference {deltaC}
  0.0085,                                 !- Zone Cooling Design Supply Air Humidity Ratio {kg-H2O/kg-air}
  0.008,                                  !- Zone Heating Design Supply Air Humidity Ratio {kg-H2O/kg-air}
  ,                                       !- Zone Heating Sizing Factor
  ,                                       !- Zone Cooling Sizing Factor
  DesignDay,                              !- Cooling Design Air Flow Method
  ,                                       !- Cooling Design Air Flow Rate {m3/s}
  ,                                       !- Cooling Minimum Air Flow per Zone Floor Area {m3/s-m2}
  ,                                       !- Cooling Minimum Air Flow {m3/s}
  ,                                       !- Cooling Minimum Air Flow Fraction
  DesignDay,                              !- Heating Design Air Flow Method
  ,                                       !- Heating Design Air Flow Rate {m3/s}
  ,                                       !- Heating Maximum Air Flow per Zone Floor Area {m3/s-m2}
  ,                                       !- Heating Maximum Air Flow {m3/s}
  ,                                       !- Heating Maximum Air Flow Fraction
  No,                                     !- Account for Dedicated Outdoor Air System
  NeutralSupplyAir,                       !- Dedicated Outdoor Air System Control Strategy
  autosize,                               !- Dedicated Outdoor Air Low Setpoint Temperature for Design {C}
  autosize,                               !- Dedicated Outdoor Air High Setpoint Temperature for Design {C}
  Sensible Load Only No Latent Load,      !- Zone Load Sizing Method
  HumidityRatioDifference,                !- Zone Latent Cooling Design Supply Air Humidity Ratio Input Method
  ,                                       !- Zone Dehumidification Design Supply Air Humidity Ratio {kgWater/kgDryAir}
  0.005,                                  !- Zone Cooling Design Supply Air Humidity Ratio Difference {kgWater/kgDryAir}
  HumidityRatioDifference,                !- Zone Latent Heating Design Supply Air Humidity Ratio Input Method
  ,                                       !- Zone Humidification Design Supply Air Humidity Ratio {kgWater/kgDryAir}
  0.005,                                  !- Zone Humidification Design Supply Air Humidity Ratio Difference {kgWater/kgDryAir}
  ,                                       !- Zone Humidistat Dehumidification Set Point Schedule Name
  ,                                       !- Zone Humidistat Humidification Set Point Schedule Name
  ,                                       !- Design Zone Air Distribution Effectiveness in Cooling Mode
  ,                                       !- Design Zone Air Distribution Effectiveness in Heating Mode
  ,                                       !- Design Zone Secondary Recirculation Fraction {dimensionless}
  ,                                       !- Design Minimum Zone Ventilation Efficiency {dimensionless}
  Coincident;                             !- Sizing Option

OS:ZoneHVAC:EquipmentList,
  {db65f10d-b7b5-4e8d-9776-b6447a2c2036}, !- Handle
  Zone HVAC Equipment List 2,             !- Name
  {c8374e46-3b8f-48b2-9d7c-21c4c27b87fd}; !- Thermal Zone

OS:AdditionalProperties,
  {cac83053-cfa7-4b24-b16e-6e6182d65ee4}, !- Handle
  {c8374e46-3b8f-48b2-9d7c-21c4c27b87fd}, !- Object Name
  ObjectType,                             !- Feature Name 1
  String,                                 !- Feature Data Type 1
  attic - vented;                         !- Feature Value 1

OS:Space,
  {b23db68f-6424-4793-9bf6-1bffb31afa39}, !- Handle
  attic - vented 1,                       !- Name
  ,                                       !- Space Type Name
  ,                                       !- Default Construction Set Name
  ,                                       !- Default Schedule Set Name
  ,                                       !- Direction of Relative North {deg}
  ,                                       !- X Origin {m}
  ,                                       !- Y Origin {m}
  ,                                       !- Z Origin {m}
  ,                                       !- Building Story Name
  {c8374e46-3b8f-48b2-9d7c-21c4c27b87fd}, !- Thermal Zone Name
  ,                                       !- Part of Total Floor Area
  ,                                       !- Design Specification Outdoor Air Object Name
  ,                                       !- Building Unit Name
  356.390921899745;                       !- Volume {m3}

OS:Material,
  {7eb7b8e1-ebd0-43c4-b62e-ede1c7b10aaa}, !- Handle
  asphalt or fiberglass shingles,         !- Name
  Rough,                                  !- Roughness
  0.00635,                                !- Thickness {m}
  0.162714,                               !- Conductivity {W/m-K}
  1121.4,                                 !- Density {kg/m3}
  1465.45,                                !- Specific Heat {J/kg-K}
  0.9,                                    !- Thermal Absorptance
  0.85,                                   !- Solar Absorptance