
OS:Version,
  {ddb4d7ce-0650-473c-a22f-d3717cb84eda}, !- Handle
  3.9.0;                                  !- Version Identifier

OS:SimulationControl,
  {0a151bd2-b07c-435c-a688-91b9cf3daddb}, !- Handle
  ,                                       !- Do Zone Sizing Calculation
  ,                                       !- Do System Sizing Calculation
  ,                                       !- Do Plant Sizing Calculation
  No;                                     !- Run Simulation for Sizing Periods

OS:Timestep,
  {130ae91e-cea4-4be1-93b3-3cf227c1ce5d}, !- Handle
  1;                                      !- Number of Timesteps per Hour

OS:ShadowCalculation,
  {10f899d9-616a-4c2e-bb2b-f1ce1e9873fd}, !- Handle
  PolygonClipping,                        !- Shading Calculation Method
  ,                                       !- Shading Calculation Update Frequency Method
  20,                                     !- Shading Calculation Update Frequency
  200,                                    !- Maximum Figures in Shadow Overlap Calculations
  ,                                       !- Polygon Clipping Algorithm
  512,                                    !- Pixel Counting Resolution
  ,                                       !- Sky Diffuse Modeling Algorithm
  No,                                     !- Output External Shading Calculation Results
  No,                                     !- Disable Self-Shading Within Shading Zone Groups
  No;                                     !- Disable Self-Shading From Shading Zone Groups to Other Zones

OS:SurfaceConvectionAlgorithm:Outside,
  {9052d75c-2408-4944-b8bb-4c7371f543e8}, !- Handle
  DOE-2;                                  !- Algorithm

OS:SurfaceConvectionAlgorithm:Inside,
  {f306dcdd-e084-4406-9759-a8e6f11fadee}, !- Handle
  TARP;                                   !- Algorithm

OS:ZoneCapacitanceMultiplier:ResearchSpecial,
  {955e3beb-38c0-4fdf-a742-b8560fb87bbc}, !- Handle
  7,                                      !- Temperature Capacity Multiplier
  15,                                     !- Humidity Capacity Multiplier
  ;                                       !- Carbon Dioxide Capacity Multiplier

OS:ConvergenceLimits,
  {39c1eb0b-25a6-4e2f-9f66-eb12c63b5f80}, !- Handle
  0;                                      !- Minimum System Timestep {minutes}

OS:RunPeriod,
  {efab84d7-c05b-4879-b00d-39932c286292}, !- Handle
  Run Period 1,                           !- Name
  1,                                      !- Begin Month
  1,                                      !- Begin Day of Month
  12,                                     !- End Month
  31,                                     !- End Day of Month
  ,                                       !- Use Weather File Holidays and Special Days
  ,                                       !- Use Weather File Daylight Saving Period
  ,                                       !- Apply Weekend Holiday Rule
  ,                                       !- Use Weather File Rain Indicators
  ,                                       !- Use Weather File Snow Indicators
  ;                                       !- Number of Times Runperiod to be Repeated

OS:PerformancePrecisionTradeoffs,
  {fa890d9b-a153-4103-9165-785501fbb6b6}, !- Handle
  ,                                       !- Use Coil Direct Solutions
  CarrollMRT;                             !- Zone Radiant Exchange Algorithm

OS:WeatherFile,
  {923ad826-926f-42e8-ace7-2f242671866b}, !- Handle
  Buffalo Niagara Intl Ap,                !- City
  NY,                                     !- State Province Region
  USA,                                    !- Country
  TMY3,                                   !- Data Source
  725280,                                 !- WMO Number
  42.93,                                  !- Latitude {deg}
  -78.73,                                 !- Longitude {deg}
  -5,                                     !- Time Zone {hr}
  215,                                    !- Elevation {m}
  /Users/nmoore/github/urbanopt-example-geojson-project/example_project/weather/USA_NY_Buffalo-Greater.Buffalo.Intl.AP.725280_TMY3.epw, !- Url
  6B50E0FF,                               !- Checksum
  ,                                       !- Start Date Actual Year
  Sunday;                                 !- Start Day of Week

OS:YearDescription,
  {075ba114-67e5-41bd-99ec-e4ed5442fe5d}, !- Handle
  2007,                                   !- Calendar Year
  ,                                       !- Day of Week for Start Day
  ;                                       !- Is Leap Year

OS:Site,
  {76fa284b-f7f0-45b8-80df-3dc45dd1ec6b}, !- Handle
  Buffalo Niagara Intl Ap_NY,             !- Name
  42.93,                                  !- Latitude {deg}
  -78.73,                                 !- Longitude {deg}
  -5,                                     !- Time Zone {hr}
  215,                                    !- Elevation {m}
  Suburbs,                                !- Terrain
  Yes;                                    !- Keep Site Location Information

OS:RunPeriodControl:DaylightSavingTime,
  {02a75bfb-5259-4d14-9a54-81b12e725f66}, !- Handle
  Mar 12,                                 !- Start Date
  Nov 5;                                  !- End Date

OS:Site:GroundTemperature:Shallow,
  {7e718801-dac6-4622-9f9f-18d8c6ba0130}, !- Handle
  4.30207395723828,                       !- January Surface Ground Temperature {C}
  2.29327249652502,                       !- February Surface Ground Temperature {C}
  2.13240047156047,                       !- March Surface Ground Temperature {C}
  3.08567940719286,                       !- April Surface Ground Temperature {C}
  6.91256312497526,                       !- May Surface Ground Temperature {C}
  10.7216195949507,                       !- June Surface Ground Temperature {C}
  14.0238679822574,                       !- July Surface Ground Temperature {C}
  16.1157611184724,                       !- August Surface Ground Temperature {C}
  16.2934789303462,                       !- September Surface Ground Temperature {C}
  14.5920754632847,                       !- October Surface Ground Temperature {C}
  11.374036348653,                        !- November Surface Ground Temperature {C}
  7.68182621661674;                       !- December Surface Ground Temperature {C}

OS:ThermalZone,
  {772c8bb5-795f-4777-baae-8beeec7d260b}, !- Handle
  conditioned space,                      !- Name
  1,                                      !- Multiplier
  ,                                       !- Ceiling Height {m}
  951.587629724161,                       !- Volume {m3}
  ,                                       !- Floor Area {m2}
  ,                                       !- Zone Inside Convection Algorithm
  ,                                       !- Zone Outside Convection Algorithm
  ,                                       !- Zone Conditioning Equipment List Name
  {4166e275-1a49-4243-8680-dfae7f08530c}, !- Zone Air Inlet Port List
  {0f9d1ae1-fe59-4563-ace1-4581bdaaffd9}, !- Zone Air Exhaust Port List
  {a766df19-f46d-4fcf-8d1c-79ed52236926}, !- Zone Air Node Name
  {2d8f8383-dea9-4717-927b-f20e83c63b47}, !- Zone Return Air Port List
  ,                                       !- Primary Daylighting Control Name
  ,                                       !- Fraction of Zone Controlled by Primary Daylighting Control
  ,                                       !- Secondary Daylighting Control Name
  ,                                       !- Fraction of Zone Controlled by Secondary Daylighting Control
  ,                                       !- Illuminance Map Name
  ,                                       !- Group Rendering Name
  {3c25b251-b4bb-436d-973a-3b038c8ee629}, !- Thermostat Name
  No;                                     !- Use Ideal Air Loads

OS:Node,
  {99fb6773-6a5b-433a-a391-24f5a677991d}, !- Handle
  Node 1,                                 !- Name
  {a766df19-f46d-4fcf-8d1c-79ed52236926}, !- Inlet Port
  ;                                       !- Outlet Port

OS:Connection,
  {a766df19-f46d-4fcf-8d1c-79ed52236926}, !- Handle
  {772c8bb5-795f-4777-baae-8beeec7d260b}, !- Source Object
  11,                                     !- Outlet Port
  {99fb6773-6a5b-433a-a391-24f5a677991d}, !- Target Object
  2;                                      !- Inlet Port

OS:PortList,
  {4166e275-1a49-4243-8680-dfae7f08530c}, !- Handle
  {772c8bb5-795f-4777-baae-8beeec7d260b}, !- HVAC Component
  {0b42d1aa-ba3c-4efb-a5fb-b01c05484820}; !- Port 1

OS:PortList,
  {0f9d1ae1-fe59-4563-ace1-4581bdaaffd9}, !- Handle
  {772c8bb5-795f-4777-baae-8beeec7d260b}; !- HVAC Component

OS:PortList,
  {2d8f8383-dea9-4717-927b-f20e83c63b47}, !- Handle
  {772c8bb5-795f-4777-baae-8beeec7d260b}, !- HVAC Component
  {c2020911-60e6-4c47-ac97-bb0323d1c4f9}; !- Port 1

OS:Sizing:Zone,
  {4a0d328a-5df6-4399-8078-40cccd8dae40}, !- Handle
  {772c8bb5-795f-4777-baae-8beeec7d260b}, !- Zone or ZoneList Name
  SupplyAirTemperature,                   !- Zone Cooling Design Supply Air Temperature Input Method
  14,                                     !- Zone Cooling Design Supply Air Temperature {C}
  11.11,                                  !- Zone Cooling Design Supply Air Temperature Difference {deltaC}
  SupplyAirTemperature,                   !- Zone Heating Design Supply Air Temperature Input Method
  40,                                     !- Zone Heating Design Supply Air Temperature {C}
  11.11,                                  !- Zone Heating Design Supply Air Temperature Difference {deltaC}
  0.0085,                                 !- Zone Cooling Design Supply Air Humidity Ratio {kg-H2O/kg-air}
  0.008,                                  !- Zone Heating Design Supply Air Humidity Ratio {kg-H2O/kg-air}
  ,                                       !- Zone Heating Sizing Factor
  ,                                       !- Zone Cooling Sizing Factor
  DesignDay,                              !- Cooling Design Air Flow Method
  ,                                       !- Cooling Design Air Flow Rate {m3/s}
  ,                                       !- Cooling Minimum Air Flow per Zone Floor Area {m3/s-m2}
  ,                                       !- Cooling Minimum Air Flow {m3/s}
  ,                                       !- Cooling Minimum Air Flow Fraction
  DesignDay,                              !- Heating Design Air Flow Method
  ,                                       !- Heating Design Air Flow Rate {m3/s}
  ,                                       !- Heating Maximum Air Flow per Zone Floor Area {m3/s-m2}
  ,                                       !- Heating Maximum Air Flow {m3/s}
  ,                                       !- Heating Maximum Air Flow Fraction
  No,                                     !- Account for Dedicated Outdoor Air System
  NeutralSupplyAir,                       !- Dedicated Outdoor Air System Control Strategy
  autosize,                               !- Dedicated Outdoor Air Low Setpoint Temperature for Design {C}
  autosize,                               !- Dedicated Outdoor Air High Setpoint Temperature for Design {C}
  Sensible Load Only No Latent Load,      !- Zone Load Sizing Method
  HumidityRatioDifference,                !- Zone Latent Cooling Design Supply Air Humidity Ratio Input Method
  ,                                       !- Zone Dehumidification Design Supply Air Humidity Ratio {kgWater/kgDryAir}
  0.005,                                  !- Zone Cooling Design Supply Air Humidity Ratio Difference {kgWater/kgDryAir}
  HumidityRatioDifference,                !- Zone Latent Heating Design Supply Air Humidity Ratio Input Method
  ,                                       !- Zone Humidification Design Supply Air Humidity Ratio {kgWater/kgDryAir}
  0.005,                                  !- Zone Humidification Design Supply Air Humidity Ratio Difference {kgWater/kgDryAir}
  ,                                       !- Zone Humidistat Dehumidification Set Point Schedule Name
  ,                                       !- Zone Humidistat Humidification Set Point Schedule Name
  ,                                       !- Design Zone Air Distribution Effectiveness in Cooling Mode
  ,                                       !- Design Zone Air Distribution Effectiveness in Heating Mode
  ,                                       !- Design Zone Secondary Recirculation Fraction {dimensionless}
  ,                                       !- Design Minimum Zone Ventilation Efficiency {dimensionless}
  Coincident;                             !- Sizing Option

OS:ZoneHVAC:EquipmentList,
  {f6c1dcc6-fce8-49c8-b2eb-f555cfd237d9}, !- Handle
  Zone HVAC Equipment List 1,             !- Name
  {772c8bb5-795f-4777-baae-8beeec7d260b}, !- Thermal Zone
  ,                                       !- Load Distribution Scheme
  {7c5cf8a6-b424-42f7-bf4b-9a833c59e683}, !- Zone Equipment 1
  1,                                      !- Zone Equipment Cooling Sequence 1
  1,                                      !- Zone Equipment Heating or No-Load Sequence 1
  {7d5fc7d6-f8cf-4f75-9f27-fce5855d2b80}, !- Zone Equipment Sequential Cooling Fraction Schedule Name 1
  {5b26cd0d-8ce3-4843-9d35-1c2a72cf6b59}; !- Zone Equipment Sequential Heating Fraction Schedule Name 1

OS:AdditionalProperties,
  {66ae2fb7-794f-4e57-845e-14934a7c6387}, !- Handle
  {772c8bb5-795f-4777-baae-8beeec7d260b}, !- Object Name
  ObjectType,                             !- Feature Name 1
  String,                                 !- Feature Data Type 1
  conditioned space;                      !- Feature Value 1

OS:Space,
  {dcc12ab9-9f4d-484e-9db0-73b02185bcd3}, !- Handle
  conditioned space 1,                    !- Name
  ,                                       !- Space Type Name
  ,                                       !- Default Construction Set Name
  ,                                       !- Default Schedule Set Name
  ,                                       !- Direction of Relative North {deg}
  ,                                       !- X Origin {m}
  ,                                       !- Y Origin {m}
  ,                                       !- Z Origin {m}
  ,                                       !- Building Story Name
  {772c8bb5-795f-4777-baae-8beeec7d260b}, !- Thermal Zone Name
  ,                                       !- Part of Total Floor Area
  ,                                       !- Design Specification Outdoor Air Object Name
  ,                                       !- Building Unit Name
  951.587629724161;                       !- Volume {m3}

OS:Schedule:Ruleset,
  {dd0166b4-90dd-46f4-9a25-f1722353439a}, !- Handle
  heating setpoint,                       !- Name
  {9427639b-46b7-4798-9b87-ca9ec2f5eed5}, !- Schedule Type Limits Name
  {22de3e23-4930-4208-a9d0-2b99b649bc05}; !- Default Day Schedule Name

OS:Schedule:Day,
  {22de3e23-4930-4208-a9d0-2b99b649bc05}, !- Handle
  heating setpoint default day,           !- Name
  {9427639b-46b7-4798-9b87-ca9ec2f5eed5}, !- Schedule Type Limits Name
  ,                                       !- Interpolate to Timestep
  24,                                     !- Hour 1
  0,                                      !- Minute 1
  0;                                      !- Value Until Time 1

OS:Schedule:Rule,
  {48b1c2a7-2627-4316-90a5-d34e331ca9e6}, !- Handle
  heating setpoint allday rule,           !- Name
  {dd0166b4-90dd-46f4-9a25-f1722353439a}, !- Schedule Ruleset Name
  0,                                      !- Rule Order
  {9a08edd7-37a2-4ab2-acb7-bc3018fab877}, !- Day Schedule Name
  Yes,                                    !- Apply Sunday
  Yes,                                    !- Apply Monday
  Yes,                                    !- Apply Tuesday
  Yes,                                    !- Apply Wednesday
  Yes,                                    !- Apply Thursday
  Yes,                                    !- Apply Friday
  Yes,                                    !- Apply Saturday
  DateRange,                              !- Date Specification Type
  1,                                      !- Start Month
  1,                                      !- Start Day
  12,                                     !- End Month
  31;                                     !- End Day

OS:Schedule:Day,
  {9a08edd7-37a2-4ab2-acb7-bc3018fab877}, !- Handle
  heating setpoint day,                   !- Name
  {9427639b-46b7-4798-9b87-ca9ec2f5eed5}, !- Schedule Type Limits Name
  ,                                       !- Interpolate to Timestep
  24,                                     !- Hour 1
  0,                                      !- Minute 1
  20;                                     !- Value Until Time 1

OS:Schedule:Ruleset,
  {648d5a63-7902-41fe-bd23-8c4b9a1a9388}, !- Handle
  cooling setpoint,                       !- Name
  {9427639b-46b7-4798-9b87-ca9ec2f5eed5}, !- Schedule Type Limits Name
  {a15f30bf-c478-4ef7-a9b3-ace4635a6439}; !- Default Day Schedule Name

OS:Schedule:Day,
  {a15f30bf-c478-4ef7-a9b3-ace4635a6439}, !- Handle
  cooling setpoint default day,           !- Name
  {9427639b-46b7-4798-9b87-ca9ec2f5eed5}, !- Schedule Type Limits Name
  ,                                       !- Interpolate to Timestep
  24,                                     !- Hour 1
  0,                                      !- Minute 1
  0;                                      !- Value Until Time 1

OS:Schedule:Rule,
  {36655493-4de4-468a-ae48-c889faa455c9}, !- Handle
  cooling setpoint allday rule,           !- Name
  {648d5a63-7902-41fe-bd23-8c4b9a1a9388}, !- Schedule Ruleset Name
  0,                                      !- Rule Order
  {30ba57ab-e3c6-42a1-af33-f719e375d503}, !- Day Schedule Name
  Yes,                                    !- Apply Sunday
  Yes,                                    !- Apply Monday
  Yes,                                    !- Apply Tuesday
  Yes,                                    !- Apply Wednesday
  Yes,                                    !- Apply Thursday
  Yes,                                    !- Apply Friday
  Yes,                                    !- Apply Saturday
  DateRange,                              !- Date Specification Type
  1,                                      !- Start Month
  1,                                      !- Start Day
  12,                                     !- End Month
  31;                                     !- End Day

OS:Schedule:Day,
  {30ba57ab-e3c6-42a1-af33-f719e375d503}, !- Handle
  cooling setpoint day,                   !- Name
  {9427639b-46b7-4798-9b87-ca9ec2f5eed5}, !- Schedule Type Limits Name
  ,                                       !- Interpolate to Timestep
  24,                                     !- Hour 1
  0,                                      !- Minute 1
  25.5555555555556;                       !- Value Until Time 1

OS:ThermostatSetpoint:DualSetpoint,
  {3c25b251-b4bb-436d-973a-3b038c8ee629}, !- Handle
  conditioned space temperature setpoint, !- Name
  {dd0166b4-90dd-46f4-9a25-f1722353439a}, !- Heating Setpoint Temperature Schedule Name
  {648d5a63-7902-41fe-bd23-8c4b9a1a9388}, !- Cooling Setpoint Temperature Schedule Name
  0;                                      !- Temperature Difference Between Cutout And Setpoint {deltaC}

OS:ScheduleTypeLimits,
  {9427639b-46b7-4798-9b87-ca9ec2f5eed5}, !- Handle
  Temperature,                            !- Name
  ,                                       !- Lower Limit Value
  ,                                       !- Upper Limit Value
  Continuous,                             !- Numeric Type
  Temperature;                            !- Unit Type

OS:Surface,
  {26733cce-f36a-40a5-8113-9c2e69f1342b}, !- Handle
  Roof1,                                  !- Name
  RoofCeiling,                            !- Surface Type
  {b58a7605-18f5-4789-84b8-85aaab371e19}, !- Construction Name
  {b62e65a0-b3d3-476d-8772-dc096f6959e2}, !- Space Name
  Outdoors,                               !- Outside Boundary Condition
  ,                                       !- Outside Boundary Condition Object
  SunExposed,                             !- Sun Exposure
  WindExposed,                            !- Wind Exposure
  ,                                       !- View Factor to Ground
  ,                                       !- Number of Vertices
  -26.9347048849634, 58.0557891618865, 2.4384, !- X,Y,Z Vertex 1 {m}
  -26.9347048849634, 46.7895631136661, 8.0715130241102, !- X,Y,Z Vertex 2 {m}
  -14.3386812381136, 46.7895631136661, 8.0715130241102, !- X,Y,Z Vertex 3 {m}
  -14.3386812381136, 58.0557891618865, 2.4384; !- X,Y,Z Vertex 4 {m}

OS:AdditionalProperties,
  {542926f1-bb4b-4618-8af7-35f8d642236c}, !- Handle
  {26733cce-f36a-40a5-8113-9c2e69f1342b}, !- Object Name
  Length,                                 !- Feature Name 1
  Double,                                 !- Feature Data Type 1
  41.325536899113608,                     !- Feature Value 1
  Width,                                  !- Feature Name 2
  Double,                                 !- Feature Data Type 2
  41.325536899113601,                     !- Feature Value 2
  Azimuth,                                !- Feature Name 3
  Integer,                                !- Feature Data Type 3
  0,                                      !- Feature Value 3
  Tilt,                                   !- Feature Name 4
  Double,                                 !- Feature Data Type 4
  0.5,                                    !- Feature Value 4
  SurfaceType,                            !- Feature Name 5
  String,                                 !- Feature Data Type 5
  Roof;                                   !- Feature Value 5

OS:ThermalZone,
  {84cae86f-da15-4b4a-8ade-a1f8a8a9a368}, !- Handle
  attic - vented,                         !- Name
  1,                                      !- Multiplier
  ,                                       !- Ceiling Height {m}
  356.389957095237,                       !- Volume {m3}
  ,                                       !- Floor Area {m2}
  ,                                       !- Zone Inside Convection Algorithm
  ,                                       !- Zone Outside Convection Algorithm
  ,                                       !- Zone Conditioning Equipment List Name
  {61218976-18c6-4395-b83e-2088da5d4ca4}, !- Zone Air Inlet Port List
  {dcfd0908-4136-47ec-ace7-cc2e0a0dc81e}, !- Zone Air Exhaust Port List
  {2a5fc957-aef7-41df-98cb-b1b0f6cc2080}, !- Zone Air Node Name
  {72e7512d-9e46-455c-ada5-240c2008cbf8}, !- Zone Return Air Port List
  ,                                       !- Primary Daylighting Control Name
  ,                                       !- Fraction of Zone Controlled by Primary Daylighting Control
  ,                                       !- Secondary Daylighting Control Name
  ,                                       !- Fraction of Zone Controlled by Secondary Daylighting Control
  ,                                       !- Illuminance Map Name
  ,                                       !- Group Rendering Name
  ,                                       !- Thermostat Name
  No;                                     !- Use Ideal Air Loads

OS:Node,
  {ec6041f6-613d-4eee-ad2a-1f68682e5d91}, !- Handle
  Node 2,                                 !- Name
  {2a5fc957-aef7-41df-98cb-b1b0f6cc2080}, !- Inlet Port
  ;                                       !- Outlet Port

OS:Connection,
  {2a5fc957-aef7-41df-98cb-b1b0f6cc2080}, !- Handle
  {84cae86f-da15-4b4a-8ade-a1f8a8a9a368}, !- Source Object
  11,                                     !- Outlet Port
  {ec6041f6-613d-4eee-ad2a-1f68682e5d91}, !- Target Object
  2;                                      !- Inlet Port

OS:PortList,
  {61218976-18c6-4395-b83e-2088da5d4ca4}, !- Handle
  {84cae86f-da15-4b4a-8ade-a1f8a8a9a368}; !- HVAC Component

OS:PortList,
  {dcfd0908-4136-47ec-ace7-cc2e0a0dc81e}, !- Handle
  {84cae86f-da15-4b4a-8ade-a1f8a8a9a368}; !- HVAC Component

OS:PortList,
  {72e7512d-9e46-455c-ada5-240c2008cbf8}, !- Handle
  {84cae86f-da15-4b4a-8ade-a1f8a8a9a368}; !- HVAC Component

OS:Sizing:Zone,
  {2d231a0d-003f-4296-a409-2474c9427567}, !- Handle
  {84cae86f-da15-4b4a-8ade-a1f8a8a9a368}, !- Zone or ZoneList Name
  SupplyAirTemperature,                   !- Zone Cooling Design Supply Air Temperature Input Method
  14,                                     !- Zone Cooling Design Supply Air Temperature {C}
  11.11,                                  !- Zone Cooling Design Supply Air Temperature Difference {deltaC}
  SupplyAirTemperature,                   !- Zone Heating Design Supply Air Temperature Input Method
  40,                                     !- Zone Heating Design Supply Air Temperature {C}
  11.11,                                  !- Zone Heating Design Supply Air Temperature Difference {deltaC}
  0.0085,                                 !- Zone Cooling Design Supply Air Humidity Ratio {kg-H2O/kg-air}
  0.008,                                  !- Zone Heating Design Supply Air Humidity Ratio {kg-H2O/kg-air}
  ,                                       !- Zone Heating Sizing Factor
  ,                                       !- Zone Cooling Sizing Factor
  DesignDay,                              !- Cooling Design Air Flow Method
  ,                                       !- Cooling Design Air Flow Rate {m3/s}
  ,                                       !- Cooling Minimum Air Flow per Zone Floor Area {m3/s-m2}
  ,                                       !- Cooling Minimum Air Flow {m3/s}
  ,                                       !- Cooling Minimum Air Flow Fraction
  DesignDay,                              !- Heating Design Air Flow Method
  ,                                       !- Heating Design Air Flow Rate {m3/s}
  ,                                       !- Heating Maximum Air Flow per Zone Floor Area {m3/s-m2}
  ,                                       !- Heating Maximum Air Flow {m3/s}
  ,                                       !- Heating Maximum Air Flow Fraction
  No,                                     !- Account for Dedicated Outdoor Air System
  NeutralSupplyAir,                       !- Dedicated Outdoor Air System Control Strategy
  autosize,                               !- Dedicated Outdoor Air Low Setpoint Temperature for Design {C}
  autosize,                               !- Dedicated Outdoor Air High Setpoint Temperature for Design {C}
  Sensible Load Only No Latent Load,      !- Zone Load Sizing Method
  HumidityRatioDifference,                !- Zone Latent Cooling Design Supply Air Humidity Ratio Input Method
  ,                                       !- Zone Dehumidification Design Supply Air Humidity Ratio {kgWater/kgDryAir}
  0.005,                                  !- Zone Cooling Design Supply Air Humidity Ratio Difference {kgWater/kgDryAir}
  HumidityRatioDifference,                !- Zone Latent Heating Design Supply Air Humidity Ratio Input Method
  ,                                       !- Zone Humidification Design Supply Air Humidity Ratio {kgWater/kgDryAir}
  0.005,                                  !- Zone Humidification Design Supply Air Humidity Ratio Difference {kgWater/kgDryAir}
  ,                                       !- Zone Humidistat Dehumidification Set Point Schedule Name
  ,                                       !- Zone Humidistat Humidification Set Point Schedule Name
  ,                                       !- Design Zone Air Distribution Effectiveness in Cooling Mode
  ,                                       !- Design Zone Air Distribution Effectiveness in Heating Mode
  ,                                       !- Design Zone Secondary Recirculation Fraction {dimensionless}
  ,                                       !- Design Minimum Zone Ventilation Efficiency {dimensionless}
  Coincident;                             !- Sizing Option

OS:ZoneHVAC:EquipmentList,
  {b104ba67-59d6-4805-955b-7cf7265e6f12}, !- Handle
  Zone HVAC Equipment List 2,             !- Name
  {84cae86f-da15-4b4a-8ade-a1f8a8a9a368}; !- Thermal Zone

OS:AdditionalProperties,
  {9e60bc2c-6736-4f86-9afc-42b6260e5ffa}, !- Handle
  {84cae86f-da15-4b4a-8ade-a1f8a8a9a368}, !- Object Name
  ObjectType,                             !- Feature Name 1
  String,                                 !- Feature Data Type 1
  attic - vented;                         !- Feature Value 1

OS:Space,
  {b62e65a0-b3d3-476d-8772-dc096f6959e2}, !- Handle
  attic - vented 1,                       !- Name
  ,                                       !- Space Type Name
  ,                                       !- Default Construction Set Name
  ,                                       !- Default Schedule Set Name
  ,                                       !- Direction of Relative North {deg}
  ,                                       !- X Origin {m}
  ,                                       !- Y Origin {m}
  ,                                       !- Z Origin {m}
  ,                                       !- Building Story Name
  {84cae86f-da15-4b4a-8ade-a1f8a8a9a368}, !- Thermal Zone Name
  ,                                       !- Part of Total Floor Area
  ,                                       !- Design Specification Outdoor Air Object Name
  ,                                       !- Building Unit Name
  356.389957095237;                       !- Volume {m3}

OS:Material,
  {cb715322-a97a-45ba-9fca-2d9b695a0f4d}, !- Handle
  asphalt or fiberglass shingles,         !- Name
  Rough,                                  !- Roughness
  0.00635,                                !- Thickness {m}
  0.162714,                               !- Conductivity {W/m-K}
  1121.4,                                 !- Density {kg/m3}
  1465.45,                                !- Specific Heat {J/kg-K}
  0.9,                                    !- Thermal Absorptance
  0.85,                                   !- Solar Absorptance