
OS:Version,
  {5daed08b-f5fc-43d7-831f-df99cba4bc2e}, !- Handle
  3.9.0;                                  !- Version Identifier

OS:SimulationControl,
  {8ef453f3-df66-486e-afc0-066e03dd4c1f}, !- Handle
  ,                                       !- Do Zone Sizing Calculation
  ,                                       !- Do System Sizing Calculation
  ,                                       !- Do Plant Sizing Calculation
  No;                                     !- Run Simulation for Sizing Periods

OS:Timestep,
  {7aaf2faa-e2c5-47b4-90c4-95ac89f8d3fc}, !- Handle
  1;                                      !- Number of Timesteps per Hour

OS:ShadowCalculation,
  {a1172f92-61e2-40f0-92c7-844cc94b685c}, !- Handle
  PolygonClipping,                        !- Shading Calculation Method
  ,                                       !- Shading Calculation Update Frequency Method
  20,                                     !- Shading Calculation Update Frequency
  200,                                    !- Maximum Figures in Shadow Overlap Calculations
  ,                                       !- Polygon Clipping Algorithm
  512,                                    !- Pixel Counting Resolution
  ,                                       !- Sky Diffuse Modeling Algorithm
  No,                                     !- Output External Shading Calculation Results
  No,                                     !- Disable Self-Shading Within Shading Zone Groups
  No;                                     !- Disable Self-Shading From Shading Zone Groups to Other Zones

OS:SurfaceConvectionAlgorithm:Outside,
  {eb736350-5809-4fcc-a2d9-f6b32ddb4bff}, !- Handle
  DOE-2;                                  !- Algorithm

OS:SurfaceConvectionAlgorithm:Inside,
  {dce31885-2f3b-4770-865e-a7bc7dddc4b9}, !- Handle
  TARP;                                   !- Algorithm

OS:ZoneCapacitanceMultiplier:ResearchSpecial,
  {ba646d7e-8db7-47a9-8e4a-05a20a78eb2b}, !- Handle
  7,                                      !- Temperature Capacity Multiplier
  15,                                     !- Humidity Capacity Multiplier
  ;                                       !- Carbon Dioxide Capacity Multiplier

OS:ConvergenceLimits,
  {a8916cdf-2136-4d58-b35a-b8f0a33f8ece}, !- Handle
  0;                                      !- Minimum System Timestep {minutes}

OS:RunPeriod,
  {267afd7a-40c4-4e5c-9f5d-4601e636104c}, !- Handle
  Run Period 1,                           !- Name
  1,                                      !- Begin Month
  1,                                      !- Begin Day of Month
  12,                                     !- End Month
  31,                                     !- End Day of Month
  ,                                       !- Use Weather File Holidays and Special Days
  ,                                       !- Use Weather File Daylight Saving Period
  ,                                       !- Apply Weekend Holiday Rule
  ,                                       !- Use Weather File Rain Indicators
  ,                                       !- Use Weather File Snow Indicators
  ;                                       !- Number of Times Runperiod to be Repeated

OS:PerformancePrecisionTradeoffs,
  {d6a05bdd-1df9-44fd-8a81-343c49e6e66d}, !- Handle
  ,                                       !- Use Coil Direct Solutions
  CarrollMRT;                             !- Zone Radiant Exchange Algorithm

OS:WeatherFile,
  {a46ce1d6-fab3-4451-b1fa-2b5f971eec89}, !- Handle
  Buffalo Niagara Intl Ap,                !- City
  NY,                                     !- State Province Region
  USA,                                    !- Country
  TMY3,                                   !- Data Source
  725280,                                 !- WMO Number
  42.93,                                  !- Latitude {deg}
  -78.73,                                 !- Longitude {deg}
  -5,                                     !- Time Zone {hr}
  215,                                    !- Elevation {m}
  /Users/nmoore/github/urbanopt-example-geojson-project/example_project/weather/USA_NY_Buffalo-Greater.Buffalo.Intl.AP.725280_TMY3.epw, !- Url
  6B50E0FF,                               !- Checksum
  ,                                       !- Start Date Actual Year
  Sunday;                                 !- Start Day of Week

OS:YearDescription,
  {0c6d87cd-767f-4cc2-b4d6-682a8ca8598c}, !- Handle
  2007,                                   !- Calendar Year
  ,                                       !- Day of Week for Start Day
  ;                                       !- Is Leap Year

OS:Site,
  {ae269e70-8342-4197-84cc-34ef79c28e06}, !- Handle
  Buffalo Niagara Intl Ap_NY,             !- Name
  42.93,                                  !- Latitude {deg}
  -78.73,                                 !- Longitude {deg}
  -5,                                     !- Time Zone {hr}
  215,                                    !- Elevation {m}
  Suburbs,                                !- Terrain
  Yes;                                    !- Keep Site Location Information

OS:RunPeriodControl:DaylightSavingTime,
  {a4a9bfba-cb29-497c-827c-ca91430e56e0}, !- Handle
  Mar 12,                                 !- Start Date
  Nov 5;                                  !- End Date

OS:Site:GroundTemperature:Shallow,
  {53295e55-ffe5-462c-8a6b-33e2b1e4a97b}, !- Handle
  4.30207395723828,                       !- January Surface Ground Temperature {C}
  2.29327249652502,                       !- February Surface Ground Temperature {C}
  2.13240047156047,                       !- March Surface Ground Temperature {C}
  3.08567940719286,                       !- April Surface Ground Temperature {C}
  6.91256312497526,                       !- May Surface Ground Temperature {C}
  10.7216195949507,                       !- June Surface Ground Temperature {C}
  14.0238679822574,                       !- July Surface Ground Temperature {C}
  16.1157611184724,                       !- August Surface Ground Temperature {C}
  16.2934789303462,                       !- September Surface Ground Temperature {C}
  14.5920754632847,                       !- October Surface Ground Temperature {C}
  11.374036348653,                        !- November Surface Ground Temperature {C}
  7.68182621661674;                       !- December Surface Ground Temperature {C}

OS:ThermalZone,
  {a46ac93a-5880-4cf2-b5a6-110157253f89}, !- Handle
  conditioned space,                      !- Name
  1,                                      !- Multiplier
  ,                                       !- Ceiling Height {m}
  346.03186535424,                        !- Volume {m3}
  ,                                       !- Floor Area {m2}
  ,                                       !- Zone Inside Convection Algorithm
  ,                                       !- Zone Outside Convection Algorithm
  ,                                       !- Zone Conditioning Equipment List Name
  {caf260d2-5e1f-4ac6-ae53-0c1dbbddc4a8}, !- Zone Air Inlet Port List
  {12a3434d-3390-42d9-b5dc-e611494b2c2d}, !- Zone Air Exhaust Port List
  {39fb8cc9-126c-4eab-bf96-e3ac34346757}, !- Zone Air Node Name
  {ee9c3b0d-eb82-480a-bd09-ff381b698aa6}, !- Zone Return Air Port List
  ,                                       !- Primary Daylighting Control Name
  ,                                       !- Fraction of Zone Controlled by Primary Daylighting Control
  ,                                       !- Secondary Daylighting Control Name
  ,                                       !- Fraction of Zone Controlled by Secondary Daylighting Control
  ,                                       !- Illuminance Map Name
  ,                                       !- Group Rendering Name
  {9ca1a9ce-c5dc-44e0-886e-3cf9fe23c37a}, !- Thermostat Name
  No;                                     !- Use Ideal Air Loads

OS:Node,
  {98eceaaf-139f-402d-95dc-b39a5f22976f}, !- Handle
  Node 1,                                 !- Name
  {39fb8cc9-126c-4eab-bf96-e3ac34346757}, !- Inlet Port
  ;                                       !- Outlet Port

OS:Connection,
  {39fb8cc9-126c-4eab-bf96-e3ac34346757}, !- Handle
  {a46ac93a-5880-4cf2-b5a6-110157253f89}, !- Source Object
  11,                                     !- Outlet Port
  {98eceaaf-139f-402d-95dc-b39a5f22976f}, !- Target Object
  2;                                      !- Inlet Port

OS:PortList,
  {caf260d2-5e1f-4ac6-ae53-0c1dbbddc4a8}, !- Handle
  {a46ac93a-5880-4cf2-b5a6-110157253f89}, !- HVAC Component
  {bbcec24b-bf11-4a60-a356-9faf967c0210}; !- Port 1

OS:PortList,
  {12a3434d-3390-42d9-b5dc-e611494b2c2d}, !- Handle
  {a46ac93a-5880-4cf2-b5a6-110157253f89}; !- HVAC Component

OS:PortList,
  {ee9c3b0d-eb82-480a-bd09-ff381b698aa6}, !- Handle
  {a46ac93a-5880-4cf2-b5a6-110157253f89}, !- HVAC Component
  {00ad36c0-c585-402d-8bf8-5ddb5fe35824}; !- Port 1

OS:Sizing:Zone,
  {eec08a0f-2081-414c-8e7b-3aafc1066975}, !- Handle
  {a46ac93a-5880-4cf2-b5a6-110157253f89}, !- Zone or ZoneList Name
  SupplyAirTemperature,                   !- Zone Cooling Design Supply Air Temperature Input Method
  14,                                     !- Zone Cooling Design Supply Air Temperature {C}
  11.11,                                  !- Zone Cooling Design Supply Air Temperature Difference {deltaC}
  SupplyAirTemperature,                   !- Zone Heating Design Supply Air Temperature Input Method
  40,                                     !- Zone Heating Design Supply Air Temperature {C}
  11.11,                                  !- Zone Heating Design Supply Air Temperature Difference {deltaC}
  0.0085,                                 !- Zone Cooling Design Supply Air Humidity Ratio {kg-H2O/kg-air}
  0.008,                                  !- Zone Heating Design Supply Air Humidity Ratio {kg-H2O/kg-air}
  ,                                       !- Zone Heating Sizing Factor
  ,                                       !- Zone Cooling Sizing Factor
  DesignDay,                              !- Cooling Design Air Flow Method
  ,                                       !- Cooling Design Air Flow Rate {m3/s}
  ,                                       !- Cooling Minimum Air Flow per Zone Floor Area {m3/s-m2}
  ,                                       !- Cooling Minimum Air Flow {m3/s}
  ,                                       !- Cooling Minimum Air Flow Fraction
  DesignDay,                              !- Heating Design Air Flow Method
  ,                                       !- Heating Design Air Flow Rate {m3/s}
  ,                                       !- Heating Maximum Air Flow per Zone Floor Area {m3/s-m2}
  ,                                       !- Heating Maximum Air Flow {m3/s}
  ,                                       !- Heating Maximum Air Flow Fraction
  No,                                     !- Account for Dedicated Outdoor Air System
  NeutralSupplyAir,                       !- Dedicated Outdoor Air System Control Strategy
  autosize,                               !- Dedicated Outdoor Air Low Setpoint Temperature for Design {C}
  autosize,                               !- Dedicated Outdoor Air High Setpoint Temperature for Design {C}
  Sensible Load Only No Latent Load,      !- Zone Load Sizing Method
  HumidityRatioDifference,                !- Zone Latent Cooling Design Supply Air Humidity Ratio Input Method
  ,                                       !- Zone Dehumidification Design Supply Air Humidity Ratio {kgWater/kgDryAir}
  0.005,                                  !- Zone Cooling Design Supply Air Humidity Ratio Difference {kgWater/kgDryAir}
  HumidityRatioDifference,                !- Zone Latent Heating Design Supply Air Humidity Ratio Input Method
  ,                                       !- Zone Humidification Design Supply Air Humidity Ratio {kgWater/kgDryAir}
  0.005,                                  !- Zone Humidification Design Supply Air Humidity Ratio Difference {kgWater/kgDryAir}
  ,                                       !- Zone Humidistat Dehumidification Set Point Schedule Name
  ,                                       !- Zone Humidistat Humidification Set Point Schedule Name
  ,                                       !- Design Zone Air Distribution Effectiveness in Cooling Mode
  ,                                       !- Design Zone Air Distribution Effectiveness in Heating Mode
  ,                                       !- Design Zone Secondary Recirculation Fraction {dimensionless}
  ,                                       !- Design Minimum Zone Ventilation Efficiency {dimensionless}
  Coincident;                             !- Sizing Option

OS:ZoneHVAC:EquipmentList,
  {ba250b86-c9e4-42c2-a0cf-3a5e67db8e15}, !- Handle
  Zone HVAC Equipment List 1,             !- Name
  {a46ac93a-5880-4cf2-b5a6-110157253f89}, !- Thermal Zone
  ,                                       !- Load Distribution Scheme
  {7fceedb5-ac42-483c-aa4b-49c2ad5a8fbc}, !- Zone Equipment 1
  1,                                      !- Zone Equipment Cooling Sequence 1
  1,                                      !- Zone Equipment Heating or No-Load Sequence 1
  {696ec05a-6506-4fdf-89dc-92dc13d74d12}, !- Zone Equipment Sequential Cooling Fraction Schedule Name 1
  {6e01fffc-f555-425c-99b8-4ac8c580430d}; !- Zone Equipment Sequential Heating Fraction Schedule Name 1

OS:AdditionalProperties,
  {3e940fd7-b062-4c51-86c8-c50fc67fd7a7}, !- Handle
  {a46ac93a-5880-4cf2-b5a6-110157253f89}, !- Object Name
  ObjectType,                             !- Feature Name 1
  String,                                 !- Feature Data Type 1
  conditioned space;                      !- Feature Value 1

OS:Space,
  {e8fb1120-4da4-4b0e-9419-949841d87ce3}, !- Handle
  conditioned space 1,                    !- Name
  ,                                       !- Space Type Name
  ,                                       !- Default Construction Set Name
  ,                                       !- Default Schedule Set Name
  ,                                       !- Direction of Relative North {deg}
  ,                                       !- X Origin {m}
  ,                                       !- Y Origin {m}
  ,                                       !- Z Origin {m}
  ,                                       !- Building Story Name
  {a46ac93a-5880-4cf2-b5a6-110157253f89}, !- Thermal Zone Name
  ,                                       !- Part of Total Floor Area
  ,                                       !- Design Specification Outdoor Air Object Name
  ,                                       !- Building Unit Name
  346.03186535424;                        !- Volume {m3}

OS:Schedule:Ruleset,
  {7791cdd5-e8d3-4f9b-a44d-a925832a75f1}, !- Handle
  heating setpoint,                       !- Name
  {531f6964-0a6c-4587-a8fd-f4c6c4c32065}, !- Schedule Type Limits Name
  {6f133db9-32f6-44c5-bcb5-da859314504c}; !- Default Day Schedule Name

OS:Schedule:Day,
  {6f133db9-32f6-44c5-bcb5-da859314504c}, !- Handle
  heating setpoint default day,           !- Name
  {531f6964-0a6c-4587-a8fd-f4c6c4c32065}, !- Schedule Type Limits Name
  ,                                       !- Interpolate to Timestep
  24,                                     !- Hour 1
  0,                                      !- Minute 1
  0;                                      !- Value Until Time 1

OS:Schedule:Rule,
  {36259e9d-838c-4b49-af17-6d84bc6533f7}, !- Handle
  heating setpoint allday rule,           !- Name
  {7791cdd5-e8d3-4f9b-a44d-a925832a75f1}, !- Schedule Ruleset Name
  0,                                      !- Rule Order
  {d16bb81f-14a9-4097-a6ec-9f8116267693}, !- Day Schedule Name
  Yes,                                    !- Apply Sunday
  Yes,                                    !- Apply Monday
  Yes,                                    !- Apply Tuesday
  Yes,                                    !- Apply Wednesday
  Yes,                                    !- Apply Thursday
  Yes,                                    !- Apply Friday
  Yes,                                    !- Apply Saturday
  DateRange,                              !- Date Specification Type
  1,                                      !- Start Month
  1,                                      !- Start Day
  12,                                     !- End Month
  31;                                     !- End Day

OS:Schedule:Day,
  {d16bb81f-14a9-4097-a6ec-9f8116267693}, !- Handle
  heating setpoint day,                   !- Name
  {531f6964-0a6c-4587-a8fd-f4c6c4c32065}, !- Schedule Type Limits Name
  ,                                       !- Interpolate to Timestep
  24,                                     !- Hour 1
  0,                                      !- Minute 1
  20;                                     !- Value Until Time 1

OS:Schedule:Ruleset,
  {00dd30b6-496d-4720-9c4e-84b879b9a672}, !- Handle
  cooling setpoint,                       !- Name
  {531f6964-0a6c-4587-a8fd-f4c6c4c32065}, !- Schedule Type Limits Name
  {1661c174-5271-4e59-8e4f-34d083395efd}; !- Default Day Schedule Name

OS:Schedule:Day,
  {1661c174-5271-4e59-8e4f-34d083395efd}, !- Handle
  cooling setpoint default day,           !- Name
  {531f6964-0a6c-4587-a8fd-f4c6c4c32065}, !- Schedule Type Limits Name
  ,                                       !- Interpolate to Timestep
  24,                                     !- Hour 1
  0,                                      !- Minute 1
  0;                                      !- Value Until Time 1

OS:Schedule:Rule,
  {d1e11360-72bd-443c-9895-449b2353306f}, !- Handle
  cooling setpoint allday rule,           !- Name
  {00dd30b6-496d-4720-9c4e-84b879b9a672}, !- Schedule Ruleset Name
  0,                                      !- Rule Order
  {7d0f24f7-5dd2-4550-86d0-9e2a8c651fd0}, !- Day Schedule Name
  Yes,                                    !- Apply Sunday
  Yes,                                    !- Apply Monday
  Yes,                                    !- Apply Tuesday
  Yes,                                    !- Apply Wednesday
  Yes,                                    !- Apply Thursday
  Yes,                                    !- Apply Friday
  Yes,                                    !- Apply Saturday
  DateRange,                              !- Date Specification Type
  1,                                      !- Start Month
  1,                                      !- Start Day
  12,                                     !- End Month
  31;                                     !- End Day

OS:Schedule:Day,
  {7d0f24f7-5dd2-4550-86d0-9e2a8c651fd0}, !- Handle
  cooling setpoint day,                   !- Name
  {531f6964-0a6c-4587-a8fd-f4c6c4c32065}, !- Schedule Type Limits Name
  ,                                       !- Interpolate to Timestep
  24,                                     !- Hour 1
  0,                                      !- Minute 1
  25.5555555555556;                       !- Value Until Time 1

OS:ThermostatSetpoint:DualSetpoint,
  {9ca1a9ce-c5dc-44e0-886e-3cf9fe23c37a}, !- Handle
  conditioned space temperature setpoint, !- Name
  {7791cdd5-e8d3-4f9b-a44d-a925832a75f1}, !- Heating Setpoint Temperature Schedule Name
  {00dd30b6-496d-4720-9c4e-84b879b9a672}, !- Cooling Setpoint Temperature Schedule Name
  0;                                      !- Temperature Difference Between Cutout And Setpoint {deltaC}

OS:ScheduleTypeLimits,
  {531f6964-0a6c-4587-a8fd-f4c6c4c32065}, !- Handle
  Temperature,                            !- Name
  ,                                       !- Lower Limit Value
  ,                                       !- Upper Limit Value
  Continuous,                             !- Numeric Type
  Temperature;                            !- Unit Type

OS:Surface,
  {ee858b55-4476-4f56-a3a7-ff3fe7970210}, !- Handle
  Wall1,                                  !- Name
  Wall,                                   !- Surface Type
  {8d89fa4a-f170-4b00-8d97-246df4860b87}, !- Construction Name
  {e8fb1120-4da4-4b0e-9419-949841d87ce3}, !- Space Name
  Outdoors,                               !- Outside Boundary Condition
  ,                                       !- Outside Boundary Condition Object
  SunExposed,                             !- Sun Exposure
  WindExposed,                            !- Wind Exposure
  ,                                       !- View Factor to Ground
  ,                                       !- Number of Vertices
  -41.689655, 42.6186854, 0,              !- X,Y,Z Vertex 1 {m}
  -41.689655, 42.6186854, 2.4384,         !- X,Y,Z Vertex 2 {m}
  -29.775785, 42.6186854, 2.4384,         !- X,Y,Z Vertex 3 {m}
  -29.775785, 42.6186854, 0;              !- X,Y,Z Vertex 4 {m}

OS:AdditionalProperties,
  {f3c2ef84-738c-4c8a-b005-9c12fb22aa3e}, !- Handle
  {ee858b55-4476-4f56-a3a7-ff3fe7970210}, !- Object Name
  Length,                                 !- Feature Name 1
  Double,                                 !- Feature Data Type 1
  39.087499999999999,                     !- Feature Value 1
  Azimuth,                                !- Feature Name 2
  Integer,                                !- Feature Data Type 2
  0,                                      !- Feature Value 2
  Tilt,                                   !- Feature Name 3
  Double,                                 !- Feature Data Type 3
  90,                                     !- Feature Value 3
  SurfaceType,                            !- Feature Name 4
  String,                                 !- Feature Data Type 4
  Wall;                                   !- Feature Value 4

OS:Material,
  {53f62da5-be2f-4b74-bfe9-c21ea55e1261}, !- Handle
  wood siding,                            !- Name
  Rough,                                  !- Roughness
  0.0254,                                 !- Thickness {m}
  0.1024175,                              !- Conductivity {W/m-K}
  544.68,                                 !- Density {kg/m3}
  1172.36,                                !- Specific Heat {J/kg-K}
  0.9,                                    !- Thermal Absorptance
  0.7,                                    !- Solar Absorptance
  0.7;                                    !- Visible Absorptance

OS:Material,
  {7021575e-1109-4548-a065-da054e98bec2}, !- Handle
  osb sheathing 0.5 in.,                  !- Name
  Rough,                                  !- Roughness
  0.0127,                                 !- Thickness {m}
  0.1154577,                              !- Conductivity {W/m-K}
  512.64,                                 !- Density {kg/m3}
  1214.23,                                !- Specific Heat {J/kg-K}
  0.9,                                    !- Thermal Absorptance
  0.7,                                    !- Solar Absorptance
  0.7;                                    !- Visible Absorptance

OS:Material,
  {0a4ceb2b-4c27-4333-b468-8ae269d09346}, !- Handle
  wall stud and cavity,                   !- Name
  Rough,                                  !- Roughness
  0.1397,                                 !- Thickness {m}
  0.0929021674204099,                     !- Conductivity {W/m-K}
  139.0536,                               !- Density {kg/m3}
  1170.23755760369,                       !- Specific Heat {J/kg-K}
  0.9,                                    !- Thermal Absorptance
  0.7,                                    !- Solar Absorptance
  0.7;                                    !- Visible Absorptance

OS:Material,
  {7d0a0e4d-181f-493e-a415-ddbe7827ff3c}, !- Handle
  gypsum board,                           !- Name
  Rough,                                  !- Roughness
  0.0127,                                 !- Thickness {m}
  0.1602906,                              !- Conductivity {W/m-K}
  801,                                    !- Density {kg/m3}
  837.4,                                  !- Specific Heat {J/kg-K}
  0.9,                                    !- Thermal Absorptance
  0.6,                                    !- Solar Absorptance
  0.6;                                    !- Visible Absorptance

OS:Construction,
  {8d89fa4a-f170-4b00-8d97-246df4860b87}, !- Handle
  Wall1 construction,                     !- Name
  ,                                       !- Surface Rendering Name
  {53f62da5-be2f-4b74-bfe9-c21ea55e1261}, !- Layer 1
  {7021575e-1109-4548-a065-da054e98bec2}, !- Layer 2
  {0a4ceb2b-4c27-4333-b468-8ae269d09346}, !- Layer 3
  {7d0a0e4d-181f-493e-a415-ddbe7827ff3c}; !- Layer 4

OS:Surface,
  {481e4cc9-5d46-47ae-8553-1c68d87cb173}, !- Handle
  Wall2,                                  !- Name
  Wall,                                   !- Surface Type
  {e33cd564-9150-4050-b5a6-d3140ebb2e1f}, !- Construction Name
  {e8fb1120-4da4-4b0e-9419-949841d87ce3}, !- Space Name
  Outdoors,                               !- Outside Boundary Condition
  ,                                       !- Outside Boundary Condition Object
  SunExposed,                             !- Sun Exposure
  WindExposed,                            !- Wind Exposure
  ,                                       !- View Factor to Ground
  ,                                       !- Number of Vertices
  42.6186854, -36.6636554, 0,             !- X,Y,Z Vertex 1 {m}
  42.6186854, -36.6636554, 2.4384,        !- X,Y,Z Vertex 2 {m}
  42.6186854, -42.6186854, 2.4384,        !- X,Y,Z Vertex 3 {m}
  42.6186854, -42.6186854, 0;             !- X,Y,Z Vertex 4 {m}

OS:AdditionalProperties,
  {9622d463-30ca-4676-82ef-7391c53cce6f}, !- Handle
  {481e4cc9-5d46-47ae-8553-1c68d87cb173}, !- Object Name
  Length,                                 !- Feature Name 1
  Double,                                 !- Feature Data Type 1
  19.537500000000001,                     !- Feature Value 1
  Azimuth,                                !- Feature Name 2
  Integer,                                !- Feature Data Type 2
  90,                                     !- Feature Value 2
  Tilt,                                   !- Feature Name 3
  Double,                                 !- Feature Data Type 3
  90,                                     !- Feature Value 3
  SurfaceType,                            !- Feature Name 4
  String,                                 !- Feature Data Type 4
  Wall;                                   !- Feature Value 4

OS:Construction,
  {e33cd564-9150-4050-b5a6-d3140ebb2e1f}, !- Handle
  Wall2 construction,                     !- Name
  ,                                       !- Surface Rendering Name
  {53f62da5-be2f-4b74-bfe9-c21ea55e1261}, !- Layer 1
  {7021575e-1109-4548-a065-da054e98bec2}, !- Layer 2
  {0a4ceb2b-4c27-4333-b468-8ae269d09346}, !- Layer 3
  {7d0a0e4d-181f-493e-a415-ddbe7827ff3c}; !- Layer 4

OS:Surface,
  {83056ca5-05ae-4454-ad75-7d03fd8f8aa2}, !- Handle
  Wall3,                                  !- Name
  Wall,                                   !- Surface Type
  {9c5eb547-a4bc-4e96-b6a8-af92bd37fa91}, !- Construction Name
  {e8fb1120-4da4-4b0e-9419-949841d87ce3}, !- Space Name
  Outdoors,                               !- Outside Boundary Condition
  ,                                       !- Outside Boundary Condition Object
  SunExposed,                             !- Sun Exposure
  WindExposed,                            !- Wind Exposure
  ,                                       !- View Factor to Ground
  ,                                       !- Number of Vertices
  -29.6238419715142, -42.6186854, 0,      !- X,Y,Z Vertex 1 {m}
  -29.6238419715142, -42.6186854, 2.4384, !- X,Y,Z Vertex 2 {m}
  -40.7757119715142, -42.6186854, 2.4384, !- X,Y,Z Vertex 3 {m}
  -40.7757119715142, -42.6186854, 0;      !- X,Y,Z Vertex 4 {m}

OS:AdditionalProperties,
  {b9ba1413-2896-42c8-8c00-0779d9261761}, !- Handle
  {83056ca5-05ae-4454-ad75-7d03fd8f8aa2}, !- Object Name
  Length,                                 !- Feature Name 1
  Double,                                 !- Feature Data Type 1
  36.587499999999999,                     !- Feature Value 1
  Azimuth,                                !- Feature Name 2
  Integer,                                !- Feature Data Type 2
  180,                                    !- Feature Value 2
  Tilt,                                   !- Feature Name 3
  Double,                                 !- Feature Data Type 3
  90,                                     !- Feature Value 3
  SurfaceType,                            !- Feature Name 4
  String,                                 !- Feature Data Type 4
  Wall;                                   !- Feature Value 4

OS:Construction,
  {9c5eb547-a4bc-4e96-b6a8-af92bd37fa91}, !- Handle
  Wall3 construction,                     !- Name
  ,                                       !- Surface Rendering Name
  {53f62da5-be2f-4b74-bfe9-c21ea55e1261}, !- Layer 1
  {7021575e-1109-4548-a065-da054e98bec2}, !- Layer 2
  {0a4ceb2b-4c27-4333-b468-8ae269d09346}, !- Layer 3
  {7d0a0e4d-181f-493e-a415-ddbe7827ff3c}; !- Layer 4

OS:Surface,
  {ed7e69dc-bb6e-4e88-b9d2-9cbbac5d14a7}, !- Handle
  Wall4,                                  !- Name
  Wall,                                   !- Surface Type
  {a0ecec71-5eee-4945-b43f-38dc16d08e76}, !- Construction Name
  {e8fb1120-4da4-4b0e-9419-949841d87ce3}, !- Space Name
  Outdoors,                               !- Outside Boundary Condition
  ,                                       !- Outside Boundary Condition Object
  SunExposed,                             !- Sun Exposure
  WindExposed,                            !- Wind Exposure
  ,                                       !- View Factor to Ground
  ,                                       !- Number of Vertices
  -42.6186854, 36.6636554, 0,             !- X,Y,Z Vertex 1 {m}
  -42.6186854, 36.6636554, 2.4384,        !- X,Y,Z Vertex 2 {m}
  -42.6186854, 42.6186854, 2.4384,        !- X,Y,Z Vertex 3 {m}
  -42.6186854, 42.6186854, 0;             !- X,Y,Z Vertex 4 {m}

OS:AdditionalProperties,
  {1c80ad87-29e7-43f2-9a21-756e37004198}, !- Handle
  {ed7e69dc-bb6e-4e88-b9d2-9cbbac5d14a7}, !- Object Name
  Length,                                 !- Feature Name 1