
OS:Version,
  {dd03ecd6-74e4-4754-a7a6-4c031a23a4bb}, !- Handle
  3.10.0;                                 !- Version Identifier

OS:SimulationControl,
  {97ae45cf-5d03-4d38-b250-a2cca6ddd177}, !- Handle
  ,                                       !- Do Zone Sizing Calculation
  ,                                       !- Do System Sizing Calculation
  ,                                       !- Do Plant Sizing Calculation
  No;                                     !- Run Simulation for Sizing Periods

OS:Timestep,
  {09bd0106-d4d1-463a-b23b-d77f0310bfa5}, !- Handle
  1;                                      !- Number of Timesteps per Hour

OS:ShadowCalculation,
  {298a1b8c-5c9d-4fcf-abbc-b9cceb43234d}, !- Handle
  PolygonClipping,                        !- Shading Calculation Method
  ,                                       !- Shading Calculation Update Frequency Method
  20,                                     !- Shading Calculation Update Frequency
  200,                                    !- Maximum Figures in Shadow Overlap Calculations
  ,                                       !- Polygon Clipping Algorithm
  512,                                    !- Pixel Counting Resolution
  ,                                       !- Sky Diffuse Modeling Algorithm
  No,                                     !- Output External Shading Calculation Results
  No,                                     !- Disable Self-Shading Within Shading Zone Groups
  No;                                     !- Disable Self-Shading From Shading Zone Groups to Other Zones

OS:SurfaceConvectionAlgorithm:Outside,
  {8f70e0f9-59c0-49a4-afb8-c7471b87e8b4}, !- Handle
  DOE-2;                                  !- Algorithm

OS:SurfaceConvectionAlgorithm:Inside,
  {5aab1397-1881-4175-9ad3-ffd9f557a0ad}, !- Handle
  TARP;                                   !- Algorithm

OS:ZoneCapacitanceMultiplier:ResearchSpecial,
  {655d216c-ff53-403a-96a6-29020e017564}, !- Handle
  7,                                      !- Temperature Capacity Multiplier
  15,                                     !- Humidity Capacity Multiplier
  ;                                       !- Carbon Dioxide Capacity Multiplier

OS:ConvergenceLimits,
  {61d3976c-0382-4be8-b858-8918fcecc17a}, !- Handle
  0;                                      !- Minimum System Timestep {minutes}

OS:RunPeriod,
  {12adc466-3282-4747-a583-940d0d4fa49c}, !- Handle
  Run Period 1,                           !- Name
  1,                                      !- Begin Month
  1,                                      !- Begin Day of Month
  12,                                     !- End Month
  31,                                     !- End Day of Month
  ,                                       !- Use Weather File Holidays and Special Days
  ,                                       !- Use Weather File Daylight Saving Period
  ,                                       !- Apply Weekend Holiday Rule
  ,                                       !- Use Weather File Rain Indicators
  ,                                       !- Use Weather File Snow Indicators
  ;                                       !- Number of Times Runperiod to be Repeated

OS:PerformancePrecisionTradeoffs,
  {94797d93-0163-45e8-87b2-b4eeaad26299}, !- Handle
  ,                                       !- Use Coil Direct Solutions
  CarrollMRT;                             !- Zone Radiant Exchange Algorithm

OS:WeatherFile,
  {3de9fa9e-f219-4b4d-8ca9-fcbcfad10127}, !- Handle
  Buffalo Niagara Intl Ap,                !- City
  NY,                                     !- State Province Region
  USA,                                    !- Country
  TMY3,                                   !- Data Source
  725280,                                 !- WMO Number
  42.93,                                  !- Latitude {deg}
  -78.73,                                 !- Longitude {deg}
  -5,                                     !- Time Zone {hr}
  215,                                    !- Elevation {m}
  /Users/nmoore/github/urbanopt-example-geojson-project/example_project/weather/USA_NY_Buffalo-Greater.Buffalo.Intl.AP.725280_TMY3.epw, !- Url
  6B50E0FF,                               !- Checksum
  ,                                       !- Start Date Actual Year
  Sunday;                                 !- Start Day of Week

OS:YearDescription,
  {5ccea136-c3d7-48e0-9bd4-d46efdd72108}, !- Handle
  2007,                                   !- Calendar Year
  ,                                       !- Day of Week for Start Day
  ;                                       !- Is Leap Year

OS:Site,
  {778ac26e-0673-43c2-8bf9-a6946c2495c4}, !- Handle
  Buffalo Niagara Intl Ap_NY,             !- Name
  42.93,                                  !- Latitude {deg}
  -78.73,                                 !- Longitude {deg}
  -5,                                     !- Time Zone {hr}
  215,                                    !- Elevation {m}
  Suburbs,                                !- Terrain
  Yes;                                    !- Keep Site Location Information

OS:RunPeriodControl:DaylightSavingTime,
  {92df1968-543c-4d9a-ba9b-72e15dfef8d4}, !- Handle
  Mar 12,                                 !- Start Date
  Nov 5;                                  !- End Date

OS:Site:GroundTemperature:Shallow,
  {d654d2a0-3a66-446d-b310-74961cbddebe}, !- Handle
  4.30207395723828,                       !- January Surface Ground Temperature {C}
  2.29327249652502,                       !- February Surface Ground Temperature {C}
  2.13240047156047,                       !- March Surface Ground Temperature {C}
  3.08567940719286,                       !- April Surface Ground Temperature {C}
  6.91256312497526,                       !- May Surface Ground Temperature {C}
  10.7216195949507,                       !- June Surface Ground Temperature {C}
  14.0238679822574,                       !- July Surface Ground Temperature {C}
  16.1157611184724,                       !- August Surface Ground Temperature {C}
  16.2934789303462,                       !- September Surface Ground Temperature {C}
  14.5920754632847,                       !- October Surface Ground Temperature {C}
  11.374036348653,                        !- November Surface Ground Temperature {C}
  7.68182621661674;                       !- December Surface Ground Temperature {C}

OS:ThermalZone,
  {476bb958-4541-474f-ac72-697c3c744dfc}, !- Handle
  conditioned space,                      !- Name
  1,                                      !- Multiplier
  ,                                       !- Ceiling Height {m}
  346.03186535424,                        !- Volume {m3}
  ,                                       !- Floor Area {m2}
  ,                                       !- Zone Inside Convection Algorithm
  ,                                       !- Zone Outside Convection Algorithm
  ,                                       !- Zone Conditioning Equipment List Name
  {4b916d35-4291-4773-b06c-68d64770e7f8}, !- Zone Air Inlet Port List
  {81cd09e9-338e-46eb-b601-fe2a5a22f325}, !- Zone Air Exhaust Port List
  {74c8ba1d-eb2f-41de-9668-d30c54c4667b}, !- Zone Air Node Name
  {3df8b1c1-cf16-4738-9fdd-a73483743d69}, !- Zone Return Air Port List
  ,                                       !- Primary Daylighting Control Name
  ,                                       !- Fraction of Zone Controlled by Primary Daylighting Control
  ,                                       !- Secondary Daylighting Control Name
  ,                                       !- Fraction of Zone Controlled by Secondary Daylighting Control
  ,                                       !- Illuminance Map Name
  ,                                       !- Group Rendering Name
  {771ef38f-6da1-4582-8e34-4f92ce8e80a5}, !- Thermostat Name
  No;                                     !- Use Ideal Air Loads

OS:Node,
  {7c525328-a12a-4cef-a17e-33475359c330}, !- Handle
  Node 1,                                 !- Name
  {74c8ba1d-eb2f-41de-9668-d30c54c4667b}, !- Inlet Port
  ;                                       !- Outlet Port

OS:Connection,
  {74c8ba1d-eb2f-41de-9668-d30c54c4667b}, !- Handle
  {476bb958-4541-474f-ac72-697c3c744dfc}, !- Source Object
  11,                                     !- Outlet Port
  {7c525328-a12a-4cef-a17e-33475359c330}, !- Target Object
  2;                                      !- Inlet Port

OS:PortList,
  {4b916d35-4291-4773-b06c-68d64770e7f8}, !- Handle
  {476bb958-4541-474f-ac72-697c3c744dfc}, !- HVAC Component
  {772c8e1b-8b4b-4a0f-b24a-049fb0291f30}; !- Port 1

OS:PortList,
  {81cd09e9-338e-46eb-b601-fe2a5a22f325}, !- Handle
  {476bb958-4541-474f-ac72-697c3c744dfc}; !- HVAC Component

OS:PortList,
  {3df8b1c1-cf16-4738-9fdd-a73483743d69}, !- Handle
  {476bb958-4541-474f-ac72-697c3c744dfc}, !- HVAC Component
  {8b48be5c-b76d-48d9-b2c9-cf21edc4f987}; !- Port 1

OS:Sizing:Zone,
  {4b129baa-4d83-4216-84b8-669283126b9a}, !- Handle
  {476bb958-4541-474f-ac72-697c3c744dfc}, !- Zone or ZoneList Name
  SupplyAirTemperature,                   !- Zone Cooling Design Supply Air Temperature Input Method
  14,                                     !- Zone Cooling Design Supply Air Temperature {C}
  11.11,                                  !- Zone Cooling Design Supply Air Temperature Difference {deltaC}
  SupplyAirTemperature,                   !- Zone Heating Design Supply Air Temperature Input Method
  40,                                     !- Zone Heating Design Supply Air Temperature {C}
  11.11,                                  !- Zone Heating Design Supply Air Temperature Difference {deltaC}
  0.0085,                                 !- Zone Cooling Design Supply Air Humidity Ratio {kg-H2O/kg-air}
  0.008,                                  !- Zone Heating Design Supply Air Humidity Ratio {kg-H2O/kg-air}
  ,                                       !- Zone Heating Sizing Factor
  ,                                       !- Zone Cooling Sizing Factor
  DesignDay,                              !- Cooling Design Air Flow Method
  ,                                       !- Cooling Design Air Flow Rate {m3/s}
  ,                                       !- Cooling Minimum Air Flow per Zone Floor Area {m3/s-m2}
  ,                                       !- Cooling Minimum Air Flow {m3/s}
  ,                                       !- Cooling Minimum Air Flow Fraction
  DesignDay,                              !- Heating Design Air Flow Method
  ,                                       !- Heating Design Air Flow Rate {m3/s}
  ,                                       !- Heating Maximum Air Flow per Zone Floor Area {m3/s-m2}
  ,                                       !- Heating Maximum Air Flow {m3/s}
  ,                                       !- Heating Maximum Air Flow Fraction
  No,                                     !- Account for Dedicated Outdoor Air System
  NeutralSupplyAir,                       !- Dedicated Outdoor Air System Control Strategy
  autosize,                               !- Dedicated Outdoor Air Low Setpoint Temperature for Design {C}
  autosize,                               !- Dedicated Outdoor Air High Setpoint Temperature for Design {C}
  Sensible Load Only No Latent Load,      !- Zone Load Sizing Method
  HumidityRatioDifference,                !- Zone Latent Cooling Design Supply Air Humidity Ratio Input Method
  ,                                       !- Zone Dehumidification Design Supply Air Humidity Ratio {kgWater/kgDryAir}
  0.005,                                  !- Zone Cooling Design Supply Air Humidity Ratio Difference {kgWater/kgDryAir}
  HumidityRatioDifference,                !- Zone Latent Heating Design Supply Air Humidity Ratio Input Method
  ,                                       !- Zone Humidification Design Supply Air Humidity Ratio {kgWater/kgDryAir}
  0.005,                                  !- Zone Humidification Design Supply Air Humidity Ratio Difference {kgWater/kgDryAir}
  ,                                       !- Zone Humidistat Dehumidification Set Point Schedule Name
  ,                                       !- Zone Humidistat Humidification Set Point Schedule Name
  ,                                       !- Design Zone Air Distribution Effectiveness in Cooling Mode
  ,                                       !- Design Zone Air Distribution Effectiveness in Heating Mode
  ,                                       !- Design Zone Secondary Recirculation Fraction {dimensionless}
  ,                                       !- Design Minimum Zone Ventilation Efficiency {dimensionless}
  Coincident;                             !- Sizing Option

OS:ZoneHVAC:EquipmentList,
  {e78ed9fc-cfe9-46c7-b1eb-a37c080967aa}, !- Handle
  Zone HVAC Equipment List 1,             !- Name
  {476bb958-4541-474f-ac72-697c3c744dfc}, !- Thermal Zone
  ,                                       !- Load Distribution Scheme
  {4978f3f4-cbad-4d96-86e3-04eba7a70bc7}, !- Zone Equipment 1
  1,                                      !- Zone Equipment Cooling Sequence 1
  1,                                      !- Zone Equipment Heating or No-Load Sequence 1
  {af1287bb-5387-48d4-8bb9-36e8b28146cf}, !- Zone Equipment Sequential Cooling Fraction Schedule Name 1
  {96afe423-9dae-448b-a843-1496aa5896e9}; !- Zone Equipment Sequential Heating Fraction Schedule Name 1

OS:AdditionalProperties,
  {0af1fef0-b68d-43a7-85e7-959c65c87119}, !- Handle
  {476bb958-4541-474f-ac72-697c3c744dfc}, !- Object Name
  ObjectType,                             !- Feature Name 1
  String,                                 !- Feature Data Type 1
  conditioned space;                      !- Feature Value 1

OS:Space,
  {f58927d4-5441-4c3b-be60-8c9c3e702520}, !- Handle
  conditioned space 1,                    !- Name
  ,                                       !- Space Type Name
  ,                                       !- Default Construction Set Name
  ,                                       !- Default Schedule Set Name
  ,                                       !- Direction of Relative North {deg}
  ,                                       !- X Origin {m}
  ,                                       !- Y Origin {m}
  ,                                       !- Z Origin {m}
  ,                                       !- Building Story Name
  {476bb958-4541-474f-ac72-697c3c744dfc}, !- Thermal Zone Name
  ,                                       !- Part of Total Floor Area
  ,                                       !- Design Specification Outdoor Air Object Name
  ,                                       !- Building Unit Name
  346.03186535424;                        !- Volume {m3}

OS:Schedule:Ruleset,
  {9158a519-fec2-4b5f-a4fa-cd9858c6a92f}, !- Handle
  heating setpoint,                       !- Name
  {8c66dcc0-aca4-4aad-8b72-e3ec48304d9f}, !- Schedule Type Limits Name
  {27273961-ce82-4003-b13c-56f1676534a7}; !- Default Day Schedule Name

OS:Schedule:Day,
  {27273961-ce82-4003-b13c-56f1676534a7}, !- Handle
  heating setpoint default day,           !- Name
  {8c66dcc0-aca4-4aad-8b72-e3ec48304d9f}, !- Schedule Type Limits Name
  ,                                       !- Interpolate to Timestep
  24,                                     !- Hour 1
  0,                                      !- Minute 1
  0;                                      !- Value Until Time 1

OS:Schedule:Rule,
  {3e218b83-285a-4517-adb4-c07edb889da3}, !- Handle
  heating setpoint allday rule,           !- Name
  {9158a519-fec2-4b5f-a4fa-cd9858c6a92f}, !- Schedule Ruleset Name
  0,                                      !- Rule Order
  {908ecdf8-9e09-4dc1-9df2-2208aef93623}, !- Day Schedule Name
  Yes,                                    !- Apply Sunday
  Yes,                                    !- Apply Monday
  Yes,                                    !- Apply Tuesday
  Yes,                                    !- Apply Wednesday
  Yes,                                    !- Apply Thursday
  Yes,                                    !- Apply Friday
  Yes,                                    !- Apply Saturday
  DateRange,                              !- Date Specification Type
  1,                                      !- Start Month
  1,                                      !- Start Day
  12,                                     !- End Month
  31;                                     !- End Day

OS:Schedule:Day,
  {908ecdf8-9e09-4dc1-9df2-2208aef93623}, !- Handle
  heating setpoint day,                   !- Name
  {8c66dcc0-aca4-4aad-8b72-e3ec48304d9f}, !- Schedule Type Limits Name
  ,                                       !- Interpolate to Timestep
  24,                                     !- Hour 1
  0,                                      !- Minute 1
  20;                                     !- Value Until Time 1

OS:Schedule:Ruleset,
  {433ad458-c0eb-42e2-a42f-aeaebc041187}, !- Handle
  cooling setpoint,                       !- Name
  {8c66dcc0-aca4-4aad-8b72-e3ec48304d9f}, !- Schedule Type Limits Name
  {f08f79e5-e529-4d29-9509-f5018109c00b}; !- Default Day Schedule Name

OS:Schedule:Day,
  {f08f79e5-e529-4d29-9509-f5018109c00b}, !- Handle
  cooling setpoint default day,           !- Name
  {8c66dcc0-aca4-4aad-8b72-e3ec48304d9f}, !- Schedule Type Limits Name
  ,                                       !- Interpolate to Timestep
  24,                                     !- Hour 1
  0,                                      !- Minute 1
  0;                                      !- Value Until Time 1

OS:Schedule:Rule,
  {03e4382c-827d-495b-b729-bef82c78d32d}, !- Handle
  cooling setpoint allday rule,           !- Name
  {433ad458-c0eb-42e2-a42f-aeaebc041187}, !- Schedule Ruleset Name
  0,                                      !- Rule Order
  {b6af1cb0-eb06-498f-899c-6e358f986491}, !- Day Schedule Name
  Yes,                                    !- Apply Sunday
  Yes,                                    !- Apply Monday
  Yes,                                    !- Apply Tuesday
  Yes,                                    !- Apply Wednesday
  Yes,                                    !- Apply Thursday
  Yes,                                    !- Apply Friday
  Yes,                                    !- Apply Saturday
  DateRange,                              !- Date Specification Type
  1,                                      !- Start Month
  1,                                      !- Start Day
  12,                                     !- End Month
  31;                                     !- End Day

OS:Schedule:Day,
  {b6af1cb0-eb06-498f-899c-6e358f986491}, !- Handle
  cooling setpoint day,                   !- Name
  {8c66dcc0-aca4-4aad-8b72-e3ec48304d9f}, !- Schedule Type Limits Name
  ,                                       !- Interpolate to Timestep
  24,                                     !- Hour 1
  0,                                      !- Minute 1
  25.5555555555556;                       !- Value Until Time 1

OS:ThermostatSetpoint:DualSetpoint,
  {771ef38f-6da1-4582-8e34-4f92ce8e80a5}, !- Handle
  conditioned space temperature setpoint, !- Name
  {9158a519-fec2-4b5f-a4fa-cd9858c6a92f}, !- Heating Setpoint Temperature Schedule Name
  {433ad458-c0eb-42e2-a42f-aeaebc041187}, !- Cooling Setpoint Temperature Schedule Name
  0;                                      !- Temperature Difference Between Cutout And Setpoint {deltaC}

OS:ScheduleTypeLimits,
  {8c66dcc0-aca4-4aad-8b72-e3ec48304d9f}, !- Handle
  Temperature,                            !- Name
  ,                                       !- Lower Limit Value
  ,                                       !- Upper Limit Value
  Continuous,                             !- Numeric Type
  Temperature;                            !- Unit Type

OS:Surface,
  {ba1f0fdc-4a49-47cf-8c35-4390ff9bdf10}, !- Handle
  Wall1,                                  !- Name
  Wall,                                   !- Surface Type
  {4cbd650d-59aa-4d5f-862a-77e460017984}, !- Construction Name
  {f58927d4-5441-4c3b-be60-8c9c3e702520}, !- Space Name
  Outdoors,                               !- Outside Boundary Condition
  ,                                       !- Outside Boundary Condition Object
  SunExposed,                             !- Sun Exposure
  WindExposed,                            !- Wind Exposure
  ,                                       !- View Factor to Ground
  ,                                       !- Number of Vertices
  -41.689655, 42.6186854, 0,              !- X,Y,Z Vertex 1 {m}
  -41.689655, 42.6186854, 2.4384,         !- X,Y,Z Vertex 2 {m}
  -29.775785, 42.6186854, 2.4384,         !- X,Y,Z Vertex 3 {m}
  -29.775785, 42.6186854, 0;              !- X,Y,Z Vertex 4 {m}

OS:AdditionalProperties,
  {d8128e79-9724-4188-84c7-51880c41fd5d}, !- Handle
  {ba1f0fdc-4a49-47cf-8c35-4390ff9bdf10}, !- Object Name
  Length,                                 !- Feature Name 1
  Double,                                 !- Feature Data Type 1
  39.087499999999999,                     !- Feature Value 1
  Azimuth,                                !- Feature Name 2
  Integer,                                !- Feature Data Type 2
  0,                                      !- Feature Value 2
  Tilt,                                   !- Feature Name 3
  Double,                                 !- Feature Data Type 3
  90,                                     !- Feature Value 3
  SurfaceType,                            !- Feature Name 4
  String,                                 !- Feature Data Type 4
  Wall;                                   !- Feature Value 4

OS:Material,
  {12662335-c57e-47e6-a404-d22ff2bf92cd}, !- Handle
  wood siding,                            !- Name
  Rough,                                  !- Roughness
  0.0254,                                 !- Thickness {m}
  0.1024175,                              !- Conductivity {W/m-K}
  544.68,                                 !- Density {kg/m3}
  1172.36,                                !- Specific Heat {J/kg-K}
  0.9,                                    !- Thermal Absorptance
  0.7,                                    !- Solar Absorptance
  0.7;                                    !- Visible Absorptance

OS:Material,
  {1be32c6c-c904-4c06-be22-2aac4b019664}, !- Handle
  osb sheathing 0.5 in.,                  !- Name
  Rough,                                  !- Roughness
  0.0127,                                 !- Thickness {m}
  0.1154577,                              !- Conductivity {W/m-K}
  512.64,                                 !- Density {kg/m3}
  1214.23,                                !- Specific Heat {J/kg-K}
  0.9,                                    !- Thermal Absorptance
  0.7,                                    !- Solar Absorptance
  0.7;                                    !- Visible Absorptance

OS:Material,
  {bfe6484b-05b2-4b34-a174-7dedde65384b}, !- Handle
  wall stud and cavity,                   !- Name
  Rough,                                  !- Roughness
  0.1397,                                 !- Thickness {m}
  0.0929021674204099,                     !- Conductivity {W/m-K}
  139.0536,                               !- Density {kg/m3}
  1170.23755760369,                       !- Specific Heat {J/kg-K}
  0.9,                                    !- Thermal Absorptance
  0.7,                                    !- Solar Absorptance
  0.7;                                    !- Visible Absorptance

OS:Material,
  {2d6bd618-b1c3-4a3e-b8ed-4903a775e8bd}, !- Handle
  gypsum board,                           !- Name
  Rough,                                  !- Roughness
  0.0127,                                 !- Thickness {m}
  0.1602906,                              !- Conductivity {W/m-K}
  801,                                    !- Density {kg/m3}
  837.4,                                  !- Specific Heat {J/kg-K}
  0.9,                                    !- Thermal Absorptance
  0.6,                                    !- Solar Absorptance
  0.6;                                    !- Visible Absorptance

OS:Construction,
  {4cbd650d-59aa-4d5f-862a-77e460017984}, !- Handle
  Wall1 construction,                     !- Name
  ,                                       !- Surface Rendering Name
  {12662335-c57e-47e6-a404-d22ff2bf92cd}, !- Layer 1
  {1be32c6c-c904-4c06-be22-2aac4b019664}, !- Layer 2
  {bfe6484b-05b2-4b34-a174-7dedde65384b}, !- Layer 3
  {2d6bd618-b1c3-4a3e-b8ed-4903a775e8bd}; !- Layer 4

OS:Surface,
  {56d24d82-34dc-4da9-b898-6c19208cb014}, !- Handle
  Wall2,                                  !- Name
  Wall,                                   !- Surface Type
  {039e236d-afe5-4459-8e63-188a78a80cda}, !- Construction Name
  {f58927d4-5441-4c3b-be60-8c9c3e702520}, !- Space Name
  Outdoors,                               !- Outside Boundary Condition
  ,                                       !- Outside Boundary Condition Object
  SunExposed,                             !- Sun Exposure
  WindExposed,                            !- Wind Exposure
  ,                                       !- View Factor to Ground
  ,                                       !- Number of Vertices
  42.6186854, -36.6636554, 0,             !- X,Y,Z Vertex 1 {m}
  42.6186854, -36.6636554, 2.4384,        !- X,Y,Z Vertex 2 {m}
  42.6186854, -42.6186854, 2.4384,        !- X,Y,Z Vertex 3 {m}
  42.6186854, -42.6186854, 0;             !- X,Y,Z Vertex 4 {m}

OS:AdditionalProperties,
  {0a77bee5-89a6-47de-b763-43042ce3b64a}, !- Handle
  {56d24d82-34dc-4da9-b898-6c19208cb014}, !- Object Name
  Length,                                 !- Feature Name 1
  Double,                                 !- Feature Data Type 1
  19.537500000000001,                     !- Feature Value 1
  Azimuth,                                !- Feature Name 2
  Integer,                                !- Feature Data Type 2
  90,                                     !- Feature Value 2
  Tilt,                                   !- Feature Name 3
  Double,                                 !- Feature Data Type 3
  90,                                     !- Feature Value 3
  SurfaceType,                            !- Feature Name 4
  String,                                 !- Feature Data Type 4
  Wall;                                   !- Feature Value 4

OS:Construction,
  {039e236d-afe5-4459-8e63-188a78a80cda}, !- Handle
  Wall2 construction,                     !- Name
  ,                                       !- Surface Rendering Name
  {12662335-c57e-47e6-a404-d22ff2bf92cd}, !- Layer 1
  {1be32c6c-c904-4c06-be22-2aac4b019664}, !- Layer 2
  {bfe6484b-05b2-4b34-a174-7dedde65384b}, !- Layer 3
  {2d6bd618-b1c3-4a3e-b8ed-4903a775e8bd}; !- Layer 4

OS:Surface,
  {b56e554e-9d58-4efd-bfc0-b4e64763db73}, !- Handle
  Wall3,                                  !- Name
  Wall,                                   !- Surface Type
  {d28ec6b6-cf77-4f89-b527-cba1a50a5202}, !- Construction Name
  {f58927d4-5441-4c3b-be60-8c9c3e702520}, !- Space Name
  Outdoors,                               !- Outside Boundary Condition
  ,                                       !- Outside Boundary Condition Object
  SunExposed,                             !- Sun Exposure
  WindExposed,                            !- Wind Exposure
  ,                                       !- View Factor to Ground
  ,                                       !- Number of Vertices
  -29.6238419715142, -42.6186854, 0,      !- X,Y,Z Vertex 1 {m}
  -29.6238419715142, -42.6186854, 2.4384, !- X,Y,Z Vertex 2 {m}
  -40.7757119715142, -42.6186854, 2.4384, !- X,Y,Z Vertex 3 {m}
  -40.7757119715142, -42.6186854, 0;      !- X,Y,Z Vertex 4 {m}

OS:AdditionalProperties,
  {6b84ac60-4c4c-400e-8ea7-7dbc424cc737}, !- Handle
  {b56e554e-9d58-4efd-bfc0-b4e64763db73}, !- Object Name
  Length,                                 !- Feature Name 1
  Double,                                 !- Feature Data Type 1
  36.587499999999999,                     !- Feature Value 1
  Azimuth,                                !- Feature Name 2
  Integer,                                !- Feature Data Type 2
  180,                                    !- Feature Value 2
  Tilt,                                   !- Feature Name 3
  Double,                                 !- Feature Data Type 3
  90,                                     !- Feature Value 3
  SurfaceType,                            !- Feature Name 4
  String,                                 !- Feature Data Type 4
  Wall;                                   !- Feature Value 4

OS:Construction,
  {d28ec6b6-cf77-4f89-b527-cba1a50a5202}, !- Handle
  Wall3 construction,                     !- Name
  ,                                       !- Surface Rendering Name
  {12662335-c57e-47e6-a404-d22ff2bf92cd}, !- Layer 1
  {1be32c6c-c904-4c06-be22-2aac4b019664}, !- Layer 2
  {bfe6484b-05b2-4b34-a174-7dedde65384b}, !- Layer 3
  {2d6bd618-b1c3-4a3e-b8ed-4903a775e8bd}; !- Layer 4

OS:Surface,
  {fe494e9f-7bc8-40e8-bfba-ff525e04505d}, !- Handle
  Wall4,                                  !- Name
  Wall,                                   !- Surface Type
  {2e2d6ade-a8e0-4278-bf71-e8ee13b27794}, !- Construction Name
  {f58927d4-5441-4c3b-be60-8c9c3e702520}, !- Space Name
  Outdoors,                               !- Outside Boundary Condition
  ,                                       !- Outside Boundary Condition Object
  SunExposed,                             !- Sun Exposure
  WindExposed,                            !- Wind Exposure
  ,                                       !- View Factor to Ground
  ,                                       !- Number of Vertices
  -42.6186854, 36.6636554, 0,             !- X,Y,Z Vertex 1 {m}
  -42.6186854, 36.6636554, 2.4384,        !- X,Y,Z Vertex 2 {m}
  -42.6186854, 42.6186854, 2.4384,        !- X,Y,Z Vertex 3 {m}
  -42.6186854, 42.6186854, 0;             !- X,Y,Z Vertex 4 {m}

OS:AdditionalProperties,
  {6cc7cdb3-72e0-44f3-a1fe-56099e60f415}, !- Handle
  {fe494e9f-7bc8-40e8-bfba-ff525e04505d}, !- Object Name
  Length,                                 !- Feature Name 1