
OS:Version,
  {924b159f-3de8-484f-a42b-50015e66e7b2}, !- Handle
  3.10.0;                                 !- Version Identifier

OS:SimulationControl,
  {bff7c905-a639-40cd-85fc-73e1d4879c67}, !- Handle
  ,                                       !- Do Zone Sizing Calculation
  ,                                       !- Do System Sizing Calculation
  ,                                       !- Do Plant Sizing Calculation
  No;                                     !- Run Simulation for Sizing Periods

OS:Timestep,
  {a1a3f538-46fd-4dc5-99c5-736e6cd835b8}, !- Handle
  1;                                      !- Number of Timesteps per Hour

OS:ShadowCalculation,
  {18393eda-eb06-46de-a98d-08e42deaebff}, !- Handle
  PolygonClipping,                        !- Shading Calculation Method
  ,                                       !- Shading Calculation Update Frequency Method
  20,                                     !- Shading Calculation Update Frequency
  200,                                    !- Maximum Figures in Shadow Overlap Calculations
  ,                                       !- Polygon Clipping Algorithm
  512,                                    !- Pixel Counting Resolution
  ,                                       !- Sky Diffuse Modeling Algorithm
  No,                                     !- Output External Shading Calculation Results
  No,                                     !- Disable Self-Shading Within Shading Zone Groups
  No;                                     !- Disable Self-Shading From Shading Zone Groups to Other Zones

OS:SurfaceConvectionAlgorithm:Outside,
  {62f70d14-64c9-49f3-98f5-63f5a0261a98}, !- Handle
  DOE-2;                                  !- Algorithm

OS:SurfaceConvectionAlgorithm:Inside,
  {91e28de3-c345-404f-88db-909395971aad}, !- Handle
  TARP;                                   !- Algorithm

OS:ZoneCapacitanceMultiplier:ResearchSpecial,
  {f4d7d4ae-804c-435c-80b9-13c35bc23e4e}, !- Handle
  7,                                      !- Temperature Capacity Multiplier
  15,                                     !- Humidity Capacity Multiplier
  ;                                       !- Carbon Dioxide Capacity Multiplier

OS:ConvergenceLimits,
  {78dec893-8f21-436e-aad0-c1fcf2576a14}, !- Handle
  0;                                      !- Minimum System Timestep {minutes}

OS:RunPeriod,
  {adc9f1a2-fcde-458e-bf2e-c5256a313d1a}, !- Handle
  Run Period 1,                           !- Name
  1,                                      !- Begin Month
  1,                                      !- Begin Day of Month
  12,                                     !- End Month
  31,                                     !- End Day of Month
  ,                                       !- Use Weather File Holidays and Special Days
  ,                                       !- Use Weather File Daylight Saving Period
  ,                                       !- Apply Weekend Holiday Rule
  ,                                       !- Use Weather File Rain Indicators
  ,                                       !- Use Weather File Snow Indicators
  ;                                       !- Number of Times Runperiod to be Repeated

OS:PerformancePrecisionTradeoffs,
  {5ee72162-cf46-4026-8bbb-c5debda645f2}, !- Handle
  ,                                       !- Use Coil Direct Solutions
  CarrollMRT;                             !- Zone Radiant Exchange Algorithm

OS:WeatherFile,
  {a3d82a4e-fb86-42a6-998e-f002d2346a4a}, !- Handle
  Buffalo Niagara Intl Ap,                !- City
  NY,                                     !- State Province Region
  USA,                                    !- Country
  TMY3,                                   !- Data Source
  725280,                                 !- WMO Number
  42.93,                                  !- Latitude {deg}
  -78.73,                                 !- Longitude {deg}
  -5,                                     !- Time Zone {hr}
  215,                                    !- Elevation {m}
  /Users/nmoore/github/urbanopt-example-geojson-project/example_project/weather/USA_NY_Buffalo-Greater.Buffalo.Intl.AP.725280_TMY3.epw, !- Url
  6B50E0FF,                               !- Checksum
  ,                                       !- Start Date Actual Year
  Sunday;                                 !- Start Day of Week

OS:YearDescription,
  {684e649d-8265-4e70-9dab-8e29b491cba8}, !- Handle
  2007,                                   !- Calendar Year
  ,                                       !- Day of Week for Start Day
  ;                                       !- Is Leap Year

OS:Site,
  {ae4d88cd-b631-49d1-bccb-b2e149cc1557}, !- Handle
  Buffalo Niagara Intl Ap_NY,             !- Name
  42.93,                                  !- Latitude {deg}
  -78.73,                                 !- Longitude {deg}
  -5,                                     !- Time Zone {hr}
  215,                                    !- Elevation {m}
  Suburbs,                                !- Terrain
  Yes;                                    !- Keep Site Location Information

OS:RunPeriodControl:DaylightSavingTime,
  {90e85348-7d48-43f1-8f3e-25d21060312e}, !- Handle
  Mar 12,                                 !- Start Date
  Nov 5;                                  !- End Date

OS:Site:GroundTemperature:Shallow,
  {f031ccea-6a18-44ea-9d45-268da026fa6b}, !- Handle
  4.30207395723828,                       !- January Surface Ground Temperature {C}
  2.29327249652502,                       !- February Surface Ground Temperature {C}
  2.13240047156047,                       !- March Surface Ground Temperature {C}
  3.08567940719286,                       !- April Surface Ground Temperature {C}
  6.91256312497526,                       !- May Surface Ground Temperature {C}
  10.7216195949507,                       !- June Surface Ground Temperature {C}
  14.0238679822574,                       !- July Surface Ground Temperature {C}
  16.1157611184724,                       !- August Surface Ground Temperature {C}
  16.2934789303462,                       !- September Surface Ground Temperature {C}
  14.5920754632847,                       !- October Surface Ground Temperature {C}
  11.374036348653,                        !- November Surface Ground Temperature {C}
  7.68182621661674;                       !- December Surface Ground Temperature {C}

OS:ThermalZone,
  {e53f697a-cbf7-4b6d-a9e9-809e1542686d}, !- Handle
  conditioned space,                      !- Name
  1,                                      !- Multiplier
  ,                                       !- Ceiling Height {m}
  692.06373070848,                        !- Volume {m3}
  ,                                       !- Floor Area {m2}
  ,                                       !- Zone Inside Convection Algorithm
  ,                                       !- Zone Outside Convection Algorithm
  ,                                       !- Zone Conditioning Equipment List Name
  {f64d60ea-8f2a-4212-bcfb-6db1b138f44c}, !- Zone Air Inlet Port List
  {0fdd3f6b-8d21-4e2c-a9b7-4b38093bd908}, !- Zone Air Exhaust Port List
  {56fd9e1e-2ca2-496e-8ff7-0ee480ad9463}, !- Zone Air Node Name
  {ac9db421-85d9-4e07-8985-9e9a9a05beae}, !- Zone Return Air Port List
  ,                                       !- Primary Daylighting Control Name
  ,                                       !- Fraction of Zone Controlled by Primary Daylighting Control
  ,                                       !- Secondary Daylighting Control Name
  ,                                       !- Fraction of Zone Controlled by Secondary Daylighting Control
  ,                                       !- Illuminance Map Name
  ,                                       !- Group Rendering Name
  {1ce55d58-4a41-4479-b738-d4129e344910}, !- Thermostat Name
  No;                                     !- Use Ideal Air Loads

OS:Node,
  {91aa25c2-77e5-4a63-9ada-677ad2b2b39d}, !- Handle
  Node 1,                                 !- Name
  {56fd9e1e-2ca2-496e-8ff7-0ee480ad9463}, !- Inlet Port
  ;                                       !- Outlet Port

OS:Connection,
  {56fd9e1e-2ca2-496e-8ff7-0ee480ad9463}, !- Handle
  {e53f697a-cbf7-4b6d-a9e9-809e1542686d}, !- Source Object
  11,                                     !- Outlet Port
  {91aa25c2-77e5-4a63-9ada-677ad2b2b39d}, !- Target Object
  2;                                      !- Inlet Port

OS:PortList,
  {f64d60ea-8f2a-4212-bcfb-6db1b138f44c}, !- Handle
  {e53f697a-cbf7-4b6d-a9e9-809e1542686d}, !- HVAC Component
  {eaee49ae-dc34-41a0-8683-6916f3f29c6b}; !- Port 1

OS:PortList,
  {0fdd3f6b-8d21-4e2c-a9b7-4b38093bd908}, !- Handle
  {e53f697a-cbf7-4b6d-a9e9-809e1542686d}; !- HVAC Component

OS:PortList,
  {ac9db421-85d9-4e07-8985-9e9a9a05beae}, !- Handle
  {e53f697a-cbf7-4b6d-a9e9-809e1542686d}, !- HVAC Component
  {b6143eaf-fd2d-4aeb-aeb2-b3719f9aabbd}; !- Port 1

OS:Sizing:Zone,
  {67810138-fae5-4e25-81f7-d572f48018c2}, !- Handle
  {e53f697a-cbf7-4b6d-a9e9-809e1542686d}, !- Zone or ZoneList Name
  SupplyAirTemperature,                   !- Zone Cooling Design Supply Air Temperature Input Method
  14,                                     !- Zone Cooling Design Supply Air Temperature {C}
  11.11,                                  !- Zone Cooling Design Supply Air Temperature Difference {deltaC}
  SupplyAirTemperature,                   !- Zone Heating Design Supply Air Temperature Input Method
  40,                                     !- Zone Heating Design Supply Air Temperature {C}
  11.11,                                  !- Zone Heating Design Supply Air Temperature Difference {deltaC}
  0.0085,                                 !- Zone Cooling Design Supply Air Humidity Ratio {kg-H2O/kg-air}
  0.008,                                  !- Zone Heating Design Supply Air Humidity Ratio {kg-H2O/kg-air}
  ,                                       !- Zone Heating Sizing Factor
  ,                                       !- Zone Cooling Sizing Factor
  DesignDay,                              !- Cooling Design Air Flow Method
  ,                                       !- Cooling Design Air Flow Rate {m3/s}
  ,                                       !- Cooling Minimum Air Flow per Zone Floor Area {m3/s-m2}
  ,                                       !- Cooling Minimum Air Flow {m3/s}
  ,                                       !- Cooling Minimum Air Flow Fraction
  DesignDay,                              !- Heating Design Air Flow Method
  ,                                       !- Heating Design Air Flow Rate {m3/s}
  ,                                       !- Heating Maximum Air Flow per Zone Floor Area {m3/s-m2}
  ,                                       !- Heating Maximum Air Flow {m3/s}
  ,                                       !- Heating Maximum Air Flow Fraction
  No,                                     !- Account for Dedicated Outdoor Air System
  NeutralSupplyAir,                       !- Dedicated Outdoor Air System Control Strategy
  autosize,                               !- Dedicated Outdoor Air Low Setpoint Temperature for Design {C}
  autosize,                               !- Dedicated Outdoor Air High Setpoint Temperature for Design {C}
  Sensible Load Only No Latent Load,      !- Zone Load Sizing Method
  HumidityRatioDifference,                !- Zone Latent Cooling Design Supply Air Humidity Ratio Input Method
  ,                                       !- Zone Dehumidification Design Supply Air Humidity Ratio {kgWater/kgDryAir}
  0.005,                                  !- Zone Cooling Design Supply Air Humidity Ratio Difference {kgWater/kgDryAir}
  HumidityRatioDifference,                !- Zone Latent Heating Design Supply Air Humidity Ratio Input Method
  ,                                       !- Zone Humidification Design Supply Air Humidity Ratio {kgWater/kgDryAir}
  0.005,                                  !- Zone Humidification Design Supply Air Humidity Ratio Difference {kgWater/kgDryAir}
  ,                                       !- Zone Humidistat Dehumidification Set Point Schedule Name
  ,                                       !- Zone Humidistat Humidification Set Point Schedule Name
  ,                                       !- Design Zone Air Distribution Effectiveness in Cooling Mode
  ,                                       !- Design Zone Air Distribution Effectiveness in Heating Mode
  ,                                       !- Design Zone Secondary Recirculation Fraction {dimensionless}
  ,                                       !- Design Minimum Zone Ventilation Efficiency {dimensionless}
  Coincident;                             !- Sizing Option

OS:ZoneHVAC:EquipmentList,
  {33228a99-b781-4169-8cec-ff99a69a96d0}, !- Handle
  Zone HVAC Equipment List 1,             !- Name
  {e53f697a-cbf7-4b6d-a9e9-809e1542686d}, !- Thermal Zone
  ,                                       !- Load Distribution Scheme
  {e696cc03-e545-4b39-9d1d-2f835b31f179}, !- Zone Equipment 1
  1,                                      !- Zone Equipment Cooling Sequence 1
  1,                                      !- Zone Equipment Heating or No-Load Sequence 1
  {4e71c179-d93c-411e-950a-6a131da0602b}, !- Zone Equipment Sequential Cooling Fraction Schedule Name 1
  {b662a569-79b0-47a5-9dc7-0f840b9b193e}; !- Zone Equipment Sequential Heating Fraction Schedule Name 1

OS:AdditionalProperties,
  {4a2a6141-ddc3-4925-a5f7-cd0cb985c64f}, !- Handle
  {e53f697a-cbf7-4b6d-a9e9-809e1542686d}, !- Object Name
  ObjectType,                             !- Feature Name 1
  String,                                 !- Feature Data Type 1
  conditioned space;                      !- Feature Value 1

OS:Space,
  {93a8c64b-c42f-4efd-97ed-86e7f9f8894e}, !- Handle
  conditioned space 1,                    !- Name
  ,                                       !- Space Type Name
  ,                                       !- Default Construction Set Name
  ,                                       !- Default Schedule Set Name
  ,                                       !- Direction of Relative North {deg}
  ,                                       !- X Origin {m}
  ,                                       !- Y Origin {m}
  ,                                       !- Z Origin {m}
  ,                                       !- Building Story Name
  {e53f697a-cbf7-4b6d-a9e9-809e1542686d}, !- Thermal Zone Name
  ,                                       !- Part of Total Floor Area
  ,                                       !- Design Specification Outdoor Air Object Name
  ,                                       !- Building Unit Name
  692.06373070848;                        !- Volume {m3}

OS:Schedule:Ruleset,
  {3332740a-4688-495a-b5eb-61c16de08570}, !- Handle
  heating setpoint,                       !- Name
  {270329cf-41eb-4671-a645-f4a4a5c96a25}, !- Schedule Type Limits Name
  {795454af-bb3d-42e9-adcb-d806e59f749d}; !- Default Day Schedule Name

OS:Schedule:Day,
  {795454af-bb3d-42e9-adcb-d806e59f749d}, !- Handle
  heating setpoint default day,           !- Name
  {270329cf-41eb-4671-a645-f4a4a5c96a25}, !- Schedule Type Limits Name
  ,                                       !- Interpolate to Timestep
  24,                                     !- Hour 1
  0,                                      !- Minute 1
  0;                                      !- Value Until Time 1

OS:Schedule:Rule,
  {79663bd2-1251-4ef9-9006-fccc77194cc6}, !- Handle
  heating setpoint allday rule,           !- Name
  {3332740a-4688-495a-b5eb-61c16de08570}, !- Schedule Ruleset Name
  0,                                      !- Rule Order
  {e3edf522-4673-461e-b5ba-3e46249cb81b}, !- Day Schedule Name
  Yes,                                    !- Apply Sunday
  Yes,                                    !- Apply Monday
  Yes,                                    !- Apply Tuesday
  Yes,                                    !- Apply Wednesday
  Yes,                                    !- Apply Thursday
  Yes,                                    !- Apply Friday
  Yes,                                    !- Apply Saturday
  DateRange,                              !- Date Specification Type
  1,                                      !- Start Month
  1,                                      !- Start Day
  12,                                     !- End Month
  31;                                     !- End Day

OS:Schedule:Day,
  {e3edf522-4673-461e-b5ba-3e46249cb81b}, !- Handle
  heating setpoint day,                   !- Name
  {270329cf-41eb-4671-a645-f4a4a5c96a25}, !- Schedule Type Limits Name
  ,                                       !- Interpolate to Timestep
  24,                                     !- Hour 1
  0,                                      !- Minute 1
  20;                                     !- Value Until Time 1

OS:Schedule:Ruleset,
  {32a9b680-e45c-4a83-941b-69d7c9f45315}, !- Handle
  cooling setpoint,                       !- Name
  {270329cf-41eb-4671-a645-f4a4a5c96a25}, !- Schedule Type Limits Name
  {ee7c9394-8567-4d79-8b19-47fdba853d6e}; !- Default Day Schedule Name

OS:Schedule:Day,
  {ee7c9394-8567-4d79-8b19-47fdba853d6e}, !- Handle
  cooling setpoint default day,           !- Name
  {270329cf-41eb-4671-a645-f4a4a5c96a25}, !- Schedule Type Limits Name
  ,                                       !- Interpolate to Timestep
  24,                                     !- Hour 1
  0,                                      !- Minute 1
  0;                                      !- Value Until Time 1

OS:Schedule:Rule,
  {ec2bcefc-bcd2-4c75-8ec2-96335a51273b}, !- Handle
  cooling setpoint allday rule,           !- Name
  {32a9b680-e45c-4a83-941b-69d7c9f45315}, !- Schedule Ruleset Name
  0,                                      !- Rule Order
  {278b767f-69fe-4d5c-a0a4-a2838013ea59}, !- Day Schedule Name
  Yes,                                    !- Apply Sunday
  Yes,                                    !- Apply Monday
  Yes,                                    !- Apply Tuesday
  Yes,                                    !- Apply Wednesday
  Yes,                                    !- Apply Thursday
  Yes,                                    !- Apply Friday
  Yes,                                    !- Apply Saturday
  DateRange,                              !- Date Specification Type
  1,                                      !- Start Month
  1,                                      !- Start Day
  12,                                     !- End Month
  31;                                     !- End Day

OS:Schedule:Day,
  {278b767f-69fe-4d5c-a0a4-a2838013ea59}, !- Handle
  cooling setpoint day,                   !- Name
  {270329cf-41eb-4671-a645-f4a4a5c96a25}, !- Schedule Type Limits Name
  ,                                       !- Interpolate to Timestep
  24,                                     !- Hour 1
  0,                                      !- Minute 1
  25.5555555555556;                       !- Value Until Time 1

OS:ThermostatSetpoint:DualSetpoint,
  {1ce55d58-4a41-4479-b738-d4129e344910}, !- Handle
  conditioned space temperature setpoint, !- Name
  {3332740a-4688-495a-b5eb-61c16de08570}, !- Heating Setpoint Temperature Schedule Name
  {32a9b680-e45c-4a83-941b-69d7c9f45315}, !- Cooling Setpoint Temperature Schedule Name
  0;                                      !- Temperature Difference Between Cutout And Setpoint {deltaC}

OS:ScheduleTypeLimits,
  {270329cf-41eb-4671-a645-f4a4a5c96a25}, !- Handle
  Temperature,                            !- Name
  ,                                       !- Lower Limit Value
  ,                                       !- Upper Limit Value
  Continuous,                             !- Numeric Type
  Temperature;                            !- Unit Type

OS:Surface,
  {d0d86ddd-1dc3-40b8-9a94-5622279b3169}, !- Handle
  Roof1,                                  !- Name
  RoofCeiling,                            !- Surface Type
  {b9e48c72-915d-44e6-ab6b-06a607453a58}, !- Construction Name
  {ad4e7871-b385-438a-b81d-3a1a3933edd4}, !- Space Name
  Outdoors,                               !- Outside Boundary Condition
  ,                                       !- Outside Boundary Condition Object
  SunExposed,                             !- Sun Exposure
  WindExposed,                            !- Wind Exposure
  ,                                       !- View Factor to Ground
  ,                                       !- Number of Vertices
  -26.9347048849634, 58.0557891618865, 2.4384, !- X,Y,Z Vertex 1 {m}
  -26.9347048849634, 46.7895631136661, 8.0715130241102, !- X,Y,Z Vertex 2 {m}
  -14.3386812381136, 46.7895631136661, 8.0715130241102, !- X,Y,Z Vertex 3 {m}
  -14.3386812381136, 58.0557891618865, 2.4384; !- X,Y,Z Vertex 4 {m}

OS:AdditionalProperties,
  {0460d980-03e9-432a-8de1-becbc1b53913}, !- Handle
  {d0d86ddd-1dc3-40b8-9a94-5622279b3169}, !- Object Name
  Length,                                 !- Feature Name 1
  Double,                                 !- Feature Data Type 1
  41.325536899113608,                     !- Feature Value 1
  Width,                                  !- Feature Name 2
  Double,                                 !- Feature Data Type 2
  41.325536899113601,                     !- Feature Value 2
  Azimuth,                                !- Feature Name 3
  Integer,                                !- Feature Data Type 3
  0,                                      !- Feature Value 3
  Tilt,                                   !- Feature Name 4
  Double,                                 !- Feature Data Type 4
  0.5,                                    !- Feature Value 4
  SurfaceType,                            !- Feature Name 5
  String,                                 !- Feature Data Type 5
  Roof;                                   !- Feature Value 5

OS:ThermalZone,
  {de433747-557a-4968-bfbd-59e07592b8b7}, !- Handle
  attic - vented,                         !- Name
  1,                                      !- Multiplier
  ,                                       !- Ceiling Height {m}
  356.390921899745,                       !- Volume {m3}
  ,                                       !- Floor Area {m2}
  ,                                       !- Zone Inside Convection Algorithm
  ,                                       !- Zone Outside Convection Algorithm
  ,                                       !- Zone Conditioning Equipment List Name
  {9598dce6-d313-4864-ac9b-4763440044e2}, !- Zone Air Inlet Port List
  {5970653e-d840-415c-869c-ea734988ef7c}, !- Zone Air Exhaust Port List
  {35829cd1-19ae-4cc8-a913-34f6fbb25d3d}, !- Zone Air Node Name
  {4598b8ae-7b54-4049-8679-8128e9364c51}, !- Zone Return Air Port List
  ,                                       !- Primary Daylighting Control Name
  ,                                       !- Fraction of Zone Controlled by Primary Daylighting Control
  ,                                       !- Secondary Daylighting Control Name
  ,                                       !- Fraction of Zone Controlled by Secondary Daylighting Control
  ,                                       !- Illuminance Map Name
  ,                                       !- Group Rendering Name
  ,                                       !- Thermostat Name
  No;                                     !- Use Ideal Air Loads

OS:Node,
  {f3047d52-c7dd-4cc4-b7c2-738605f463c7}, !- Handle
  Node 2,                                 !- Name
  {35829cd1-19ae-4cc8-a913-34f6fbb25d3d}, !- Inlet Port
  ;                                       !- Outlet Port

OS:Connection,
  {35829cd1-19ae-4cc8-a913-34f6fbb25d3d}, !- Handle
  {de433747-557a-4968-bfbd-59e07592b8b7}, !- Source Object
  11,                                     !- Outlet Port
  {f3047d52-c7dd-4cc4-b7c2-738605f463c7}, !- Target Object
  2;                                      !- Inlet Port

OS:PortList,
  {9598dce6-d313-4864-ac9b-4763440044e2}, !- Handle
  {de433747-557a-4968-bfbd-59e07592b8b7}; !- HVAC Component

OS:PortList,
  {5970653e-d840-415c-869c-ea734988ef7c}, !- Handle
  {de433747-557a-4968-bfbd-59e07592b8b7}; !- HVAC Component

OS:PortList,
  {4598b8ae-7b54-4049-8679-8128e9364c51}, !- Handle
  {de433747-557a-4968-bfbd-59e07592b8b7}; !- HVAC Component

OS:Sizing:Zone,
  {a97fcac3-3e00-4825-9711-ca0b427eaf26}, !- Handle
  {de433747-557a-4968-bfbd-59e07592b8b7}, !- Zone or ZoneList Name
  SupplyAirTemperature,                   !- Zone Cooling Design Supply Air Temperature Input Method
  14,                                     !- Zone Cooling Design Supply Air Temperature {C}
  11.11,                                  !- Zone Cooling Design Supply Air Temperature Difference {deltaC}
  SupplyAirTemperature,                   !- Zone Heating Design Supply Air Temperature Input Method
  40,                                     !- Zone Heating Design Supply Air Temperature {C}
  11.11,                                  !- Zone Heating Design Supply Air Temperature Difference {deltaC}
  0.0085,                                 !- Zone Cooling Design Supply Air Humidity Ratio {kg-H2O/kg-air}
  0.008,                                  !- Zone Heating Design Supply Air Humidity Ratio {kg-H2O/kg-air}
  ,                                       !- Zone Heating Sizing Factor
  ,                                       !- Zone Cooling Sizing Factor
  DesignDay,                              !- Cooling Design Air Flow Method
  ,                                       !- Cooling Design Air Flow Rate {m3/s}
  ,                                       !- Cooling Minimum Air Flow per Zone Floor Area {m3/s-m2}
  ,                                       !- Cooling Minimum Air Flow {m3/s}
  ,                                       !- Cooling Minimum Air Flow Fraction
  DesignDay,                              !- Heating Design Air Flow Method
  ,                                       !- Heating Design Air Flow Rate {m3/s}
  ,                                       !- Heating Maximum Air Flow per Zone Floor Area {m3/s-m2}
  ,                                       !- Heating Maximum Air Flow {m3/s}
  ,                                       !- Heating Maximum Air Flow Fraction
  No,                                     !- Account for Dedicated Outdoor Air System
  NeutralSupplyAir,                       !- Dedicated Outdoor Air System Control Strategy
  autosize,                               !- Dedicated Outdoor Air Low Setpoint Temperature for Design {C}
  autosize,                               !- Dedicated Outdoor Air High Setpoint Temperature for Design {C}
  Sensible Load Only No Latent Load,      !- Zone Load Sizing Method
  HumidityRatioDifference,                !- Zone Latent Cooling Design Supply Air Humidity Ratio Input Method
  ,                                       !- Zone Dehumidification Design Supply Air Humidity Ratio {kgWater/kgDryAir}
  0.005,                                  !- Zone Cooling Design Supply Air Humidity Ratio Difference {kgWater/kgDryAir}
  HumidityRatioDifference,                !- Zone Latent Heating Design Supply Air Humidity Ratio Input Method
  ,                                       !- Zone Humidification Design Supply Air Humidity Ratio {kgWater/kgDryAir}
  0.005,                                  !- Zone Humidification Design Supply Air Humidity Ratio Difference {kgWater/kgDryAir}
  ,                                       !- Zone Humidistat Dehumidification Set Point Schedule Name
  ,                                       !- Zone Humidistat Humidification Set Point Schedule Name
  ,                                       !- Design Zone Air Distribution Effectiveness in Cooling Mode
  ,                                       !- Design Zone Air Distribution Effectiveness in Heating Mode
  ,                                       !- Design Zone Secondary Recirculation Fraction {dimensionless}
  ,                                       !- Design Minimum Zone Ventilation Efficiency {dimensionless}
  Coincident;                             !- Sizing Option

OS:ZoneHVAC:EquipmentList,
  {ccd26f88-05ff-4ccc-992e-8c330c2b058b}, !- Handle
  Zone HVAC Equipment List 2,             !- Name
  {de433747-557a-4968-bfbd-59e07592b8b7}; !- Thermal Zone

OS:AdditionalProperties,
  {4fb2d25c-ce0f-41f3-9963-3233adabee6e}, !- Handle
  {de433747-557a-4968-bfbd-59e07592b8b7}, !- Object Name
  ObjectType,                             !- Feature Name 1
  String,                                 !- Feature Data Type 1
  attic - vented;                         !- Feature Value 1

OS:Space,
  {ad4e7871-b385-438a-b81d-3a1a3933edd4}, !- Handle
  attic - vented 1,                       !- Name
  ,                                       !- Space Type Name
  ,                                       !- Default Construction Set Name
  ,                                       !- Default Schedule Set Name
  ,                                       !- Direction of Relative North {deg}
  ,                                       !- X Origin {m}
  ,                                       !- Y Origin {m}
  ,                                       !- Z Origin {m}
  ,                                       !- Building Story Name
  {de433747-557a-4968-bfbd-59e07592b8b7}, !- Thermal Zone Name
  ,                                       !- Part of Total Floor Area
  ,                                       !- Design Specification Outdoor Air Object Name
  ,                                       !- Building Unit Name
  356.390921899745;                       !- Volume {m3}

OS:Material,
  {62809bf4-d8ae-4a07-a4f5-20e99c3288c7}, !- Handle
  asphalt or fiberglass shingles,         !- Name
  Rough,                                  !- Roughness
  0.00635,                                !- Thickness {m}
  0.162714,                               !- Conductivity {W/m-K}
  1121.4,                                 !- Density {kg/m3}
  1465.45,                                !- Specific Heat {J/kg-K}
  0.9,                                    !- Thermal Absorptance
  0.85,                                   !- Solar Absorptance