
OS:Version,
  {f70e4ad4-381b-45f6-b246-4ca115f48eb6}, !- Handle
  3.9.0;                                  !- Version Identifier

OS:SimulationControl,
  {bd49faa8-889d-4bba-902f-dc163b3d8ada}, !- Handle
  ,                                       !- Do Zone Sizing Calculation
  ,                                       !- Do System Sizing Calculation
  ,                                       !- Do Plant Sizing Calculation
  No;                                     !- Run Simulation for Sizing Periods

OS:Timestep,
  {505d7cb2-1964-4430-b2d9-3c0ab0596c93}, !- Handle
  1;                                      !- Number of Timesteps per Hour

OS:ShadowCalculation,
  {ce85f403-7a4c-414d-a366-72f651934492}, !- Handle
  PolygonClipping,                        !- Shading Calculation Method
  ,                                       !- Shading Calculation Update Frequency Method
  20,                                     !- Shading Calculation Update Frequency
  200,                                    !- Maximum Figures in Shadow Overlap Calculations
  ,                                       !- Polygon Clipping Algorithm
  512,                                    !- Pixel Counting Resolution
  ,                                       !- Sky Diffuse Modeling Algorithm
  No,                                     !- Output External Shading Calculation Results
  No,                                     !- Disable Self-Shading Within Shading Zone Groups
  No;                                     !- Disable Self-Shading From Shading Zone Groups to Other Zones

OS:SurfaceConvectionAlgorithm:Outside,
  {b442d279-7e62-4f3b-9e34-1e56ce1c0bc5}, !- Handle
  DOE-2;                                  !- Algorithm

OS:SurfaceConvectionAlgorithm:Inside,
  {fd3e3d0f-f994-4293-a2f4-1762b6b3c7a4}, !- Handle
  TARP;                                   !- Algorithm

OS:ZoneCapacitanceMultiplier:ResearchSpecial,
  {0217d96f-8141-4233-a07b-bfd09957da95}, !- Handle
  7,                                      !- Temperature Capacity Multiplier
  15,                                     !- Humidity Capacity Multiplier
  ;                                       !- Carbon Dioxide Capacity Multiplier

OS:ConvergenceLimits,
  {85f058a7-216d-4c81-8840-02eb858cab86}, !- Handle
  0;                                      !- Minimum System Timestep {minutes}

OS:RunPeriod,
  {bde3c40d-0eee-49c7-ad63-644508b3972c}, !- Handle
  Run Period 1,                           !- Name
  1,                                      !- Begin Month
  1,                                      !- Begin Day of Month
  12,                                     !- End Month
  31,                                     !- End Day of Month
  ,                                       !- Use Weather File Holidays and Special Days
  ,                                       !- Use Weather File Daylight Saving Period
  ,                                       !- Apply Weekend Holiday Rule
  ,                                       !- Use Weather File Rain Indicators
  ,                                       !- Use Weather File Snow Indicators
  ;                                       !- Number of Times Runperiod to be Repeated

OS:PerformancePrecisionTradeoffs,
  {c4edda82-e852-4fa7-b3d1-f14330567d64}, !- Handle
  ,                                       !- Use Coil Direct Solutions
  CarrollMRT;                             !- Zone Radiant Exchange Algorithm

OS:WeatherFile,
  {800bccea-d81b-44cf-85b4-cbc463a25fde}, !- Handle
  Buffalo Niagara Intl Ap,                !- City
  NY,                                     !- State Province Region
  USA,                                    !- Country
  TMY3,                                   !- Data Source
  725280,                                 !- WMO Number
  42.93,                                  !- Latitude {deg}
  -78.73,                                 !- Longitude {deg}
  -5,                                     !- Time Zone {hr}
  215,                                    !- Elevation {m}
  /Users/nmoore/github/urbanopt-example-geojson-project/example_project/weather/USA_NY_Buffalo-Greater.Buffalo.Intl.AP.725280_TMY3.epw, !- Url
  6B50E0FF,                               !- Checksum
  ,                                       !- Start Date Actual Year
  Sunday;                                 !- Start Day of Week

OS:YearDescription,
  {c2ddb640-f78a-4261-af5e-544b41fcceb9}, !- Handle
  2007,                                   !- Calendar Year
  ,                                       !- Day of Week for Start Day
  ;                                       !- Is Leap Year

OS:Site,
  {3a829140-103e-4f56-b042-210b875a4a93}, !- Handle
  Buffalo Niagara Intl Ap_NY,             !- Name
  42.93,                                  !- Latitude {deg}
  -78.73,                                 !- Longitude {deg}
  -5,                                     !- Time Zone {hr}
  215,                                    !- Elevation {m}
  Suburbs,                                !- Terrain
  Yes;                                    !- Keep Site Location Information

OS:RunPeriodControl:DaylightSavingTime,
  {f479d483-2618-4322-a6fd-fc35509226d6}, !- Handle
  Mar 12,                                 !- Start Date
  Nov 5;                                  !- End Date

OS:Site:GroundTemperature:Shallow,
  {cf9f87bf-acc6-488d-9069-61f83d0ee247}, !- Handle
  4.30207395723828,                       !- January Surface Ground Temperature {C}
  2.29327249652502,                       !- February Surface Ground Temperature {C}
  2.13240047156047,                       !- March Surface Ground Temperature {C}
  3.08567940719286,                       !- April Surface Ground Temperature {C}
  6.91256312497526,                       !- May Surface Ground Temperature {C}
  10.7216195949507,                       !- June Surface Ground Temperature {C}
  14.0238679822574,                       !- July Surface Ground Temperature {C}
  16.1157611184724,                       !- August Surface Ground Temperature {C}
  16.2934789303462,                       !- September Surface Ground Temperature {C}
  14.5920754632847,                       !- October Surface Ground Temperature {C}
  11.374036348653,                        !- November Surface Ground Temperature {C}
  7.68182621661674;                       !- December Surface Ground Temperature {C}

OS:ThermalZone,
  {cfcc6eae-505f-43e5-a962-064972c24aec}, !- Handle
  conditioned space,                      !- Name
  1,                                      !- Multiplier
  ,                                       !- Ceiling Height {m}
  692.06373070848,                        !- Volume {m3}
  ,                                       !- Floor Area {m2}
  ,                                       !- Zone Inside Convection Algorithm
  ,                                       !- Zone Outside Convection Algorithm
  ,                                       !- Zone Conditioning Equipment List Name
  {f5310f1d-ca27-4c01-aeed-6f3e438036fe}, !- Zone Air Inlet Port List
  {99d0a91b-1206-4ad2-b698-23b9715e0d14}, !- Zone Air Exhaust Port List
  {78db46e8-9958-436b-9912-9f2296ca4087}, !- Zone Air Node Name
  {49d127f3-4194-40e8-84b1-3e9c2cb2f2d5}, !- Zone Return Air Port List
  ,                                       !- Primary Daylighting Control Name
  ,                                       !- Fraction of Zone Controlled by Primary Daylighting Control
  ,                                       !- Secondary Daylighting Control Name
  ,                                       !- Fraction of Zone Controlled by Secondary Daylighting Control
  ,                                       !- Illuminance Map Name
  ,                                       !- Group Rendering Name
  {110cfa80-5996-47c7-9715-bd43bd918734}, !- Thermostat Name
  No;                                     !- Use Ideal Air Loads

OS:Node,
  {37e27406-aa5f-4153-9e15-d7865c03ed6d}, !- Handle
  Node 1,                                 !- Name
  {78db46e8-9958-436b-9912-9f2296ca4087}, !- Inlet Port
  ;                                       !- Outlet Port

OS:Connection,
  {78db46e8-9958-436b-9912-9f2296ca4087}, !- Handle
  {cfcc6eae-505f-43e5-a962-064972c24aec}, !- Source Object
  11,                                     !- Outlet Port
  {37e27406-aa5f-4153-9e15-d7865c03ed6d}, !- Target Object
  2;                                      !- Inlet Port

OS:PortList,
  {f5310f1d-ca27-4c01-aeed-6f3e438036fe}, !- Handle
  {cfcc6eae-505f-43e5-a962-064972c24aec}, !- HVAC Component
  {afe42c8e-46ec-4dfb-a807-d1ad20968cb4}; !- Port 1

OS:PortList,
  {99d0a91b-1206-4ad2-b698-23b9715e0d14}, !- Handle
  {cfcc6eae-505f-43e5-a962-064972c24aec}; !- HVAC Component

OS:PortList,
  {49d127f3-4194-40e8-84b1-3e9c2cb2f2d5}, !- Handle
  {cfcc6eae-505f-43e5-a962-064972c24aec}, !- HVAC Component
  {10ebea4c-9fbf-4c73-828c-d3bf21ea6875}; !- Port 1

OS:Sizing:Zone,
  {0bff8d7d-8298-4e29-9ba0-5d5010a8d591}, !- Handle
  {cfcc6eae-505f-43e5-a962-064972c24aec}, !- Zone or ZoneList Name
  SupplyAirTemperature,                   !- Zone Cooling Design Supply Air Temperature Input Method
  14,                                     !- Zone Cooling Design Supply Air Temperature {C}
  11.11,                                  !- Zone Cooling Design Supply Air Temperature Difference {deltaC}
  SupplyAirTemperature,                   !- Zone Heating Design Supply Air Temperature Input Method
  40,                                     !- Zone Heating Design Supply Air Temperature {C}
  11.11,                                  !- Zone Heating Design Supply Air Temperature Difference {deltaC}
  0.0085,                                 !- Zone Cooling Design Supply Air Humidity Ratio {kg-H2O/kg-air}
  0.008,                                  !- Zone Heating Design Supply Air Humidity Ratio {kg-H2O/kg-air}
  ,                                       !- Zone Heating Sizing Factor
  ,                                       !- Zone Cooling Sizing Factor
  DesignDay,                              !- Cooling Design Air Flow Method
  ,                                       !- Cooling Design Air Flow Rate {m3/s}
  ,                                       !- Cooling Minimum Air Flow per Zone Floor Area {m3/s-m2}
  ,                                       !- Cooling Minimum Air Flow {m3/s}
  ,                                       !- Cooling Minimum Air Flow Fraction
  DesignDay,                              !- Heating Design Air Flow Method
  ,                                       !- Heating Design Air Flow Rate {m3/s}
  ,                                       !- Heating Maximum Air Flow per Zone Floor Area {m3/s-m2}
  ,                                       !- Heating Maximum Air Flow {m3/s}
  ,                                       !- Heating Maximum Air Flow Fraction
  No,                                     !- Account for Dedicated Outdoor Air System
  NeutralSupplyAir,                       !- Dedicated Outdoor Air System Control Strategy
  autosize,                               !- Dedicated Outdoor Air Low Setpoint Temperature for Design {C}
  autosize,                               !- Dedicated Outdoor Air High Setpoint Temperature for Design {C}
  Sensible Load Only No Latent Load,      !- Zone Load Sizing Method
  HumidityRatioDifference,                !- Zone Latent Cooling Design Supply Air Humidity Ratio Input Method
  ,                                       !- Zone Dehumidification Design Supply Air Humidity Ratio {kgWater/kgDryAir}
  0.005,                                  !- Zone Cooling Design Supply Air Humidity Ratio Difference {kgWater/kgDryAir}
  HumidityRatioDifference,                !- Zone Latent Heating Design Supply Air Humidity Ratio Input Method
  ,                                       !- Zone Humidification Design Supply Air Humidity Ratio {kgWater/kgDryAir}
  0.005,                                  !- Zone Humidification Design Supply Air Humidity Ratio Difference {kgWater/kgDryAir}
  ,                                       !- Zone Humidistat Dehumidification Set Point Schedule Name
  ,                                       !- Zone Humidistat Humidification Set Point Schedule Name
  ,                                       !- Design Zone Air Distribution Effectiveness in Cooling Mode
  ,                                       !- Design Zone Air Distribution Effectiveness in Heating Mode
  ,                                       !- Design Zone Secondary Recirculation Fraction {dimensionless}
  ,                                       !- Design Minimum Zone Ventilation Efficiency {dimensionless}
  Coincident;                             !- Sizing Option

OS:ZoneHVAC:EquipmentList,
  {cf9bef47-f12d-48c5-ae0a-bb810886a3fc}, !- Handle
  Zone HVAC Equipment List 1,             !- Name
  {cfcc6eae-505f-43e5-a962-064972c24aec}, !- Thermal Zone
  ,                                       !- Load Distribution Scheme
  {a9df4806-f715-4340-ab7c-7ef03a889ae0}, !- Zone Equipment 1
  1,                                      !- Zone Equipment Cooling Sequence 1
  1,                                      !- Zone Equipment Heating or No-Load Sequence 1
  {46d0b891-e7fb-43cf-8b1b-d05363bed6d3}, !- Zone Equipment Sequential Cooling Fraction Schedule Name 1
  {270380f4-319a-42ac-ab17-b34827b4d4df}; !- Zone Equipment Sequential Heating Fraction Schedule Name 1

OS:AdditionalProperties,
  {479dc973-7825-4620-9012-4b6eeff445c5}, !- Handle
  {cfcc6eae-505f-43e5-a962-064972c24aec}, !- Object Name
  ObjectType,                             !- Feature Name 1
  String,                                 !- Feature Data Type 1
  conditioned space;                      !- Feature Value 1

OS:Space,
  {0fff9f08-7bc3-464b-a930-41e752fc1556}, !- Handle
  conditioned space 1,                    !- Name
  ,                                       !- Space Type Name
  ,                                       !- Default Construction Set Name
  ,                                       !- Default Schedule Set Name
  ,                                       !- Direction of Relative North {deg}
  ,                                       !- X Origin {m}
  ,                                       !- Y Origin {m}
  ,                                       !- Z Origin {m}
  ,                                       !- Building Story Name
  {cfcc6eae-505f-43e5-a962-064972c24aec}, !- Thermal Zone Name
  ,                                       !- Part of Total Floor Area
  ,                                       !- Design Specification Outdoor Air Object Name
  ,                                       !- Building Unit Name
  692.06373070848;                        !- Volume {m3}

OS:Schedule:Ruleset,
  {5a034932-8be9-460d-a789-957f2cea2d4b}, !- Handle
  heating setpoint,                       !- Name
  {a3f645df-42ab-411e-ab30-a3c307e7ff2e}, !- Schedule Type Limits Name
  {7b551977-5a48-4209-a7d0-a6a04b3c1466}; !- Default Day Schedule Name

OS:Schedule:Day,
  {7b551977-5a48-4209-a7d0-a6a04b3c1466}, !- Handle
  heating setpoint default day,           !- Name
  {a3f645df-42ab-411e-ab30-a3c307e7ff2e}, !- Schedule Type Limits Name
  ,                                       !- Interpolate to Timestep
  24,                                     !- Hour 1
  0,                                      !- Minute 1
  0;                                      !- Value Until Time 1

OS:Schedule:Rule,
  {bfe0776d-c7d5-4bb4-85da-e3f242bec3af}, !- Handle
  heating setpoint allday rule,           !- Name
  {5a034932-8be9-460d-a789-957f2cea2d4b}, !- Schedule Ruleset Name
  0,                                      !- Rule Order
  {2e319c33-585d-458a-b0a8-6871bc3dc987}, !- Day Schedule Name
  Yes,                                    !- Apply Sunday
  Yes,                                    !- Apply Monday
  Yes,                                    !- Apply Tuesday
  Yes,                                    !- Apply Wednesday
  Yes,                                    !- Apply Thursday
  Yes,                                    !- Apply Friday
  Yes,                                    !- Apply Saturday
  DateRange,                              !- Date Specification Type
  1,                                      !- Start Month
  1,                                      !- Start Day
  12,                                     !- End Month
  31;                                     !- End Day

OS:Schedule:Day,
  {2e319c33-585d-458a-b0a8-6871bc3dc987}, !- Handle
  heating setpoint day,                   !- Name
  {a3f645df-42ab-411e-ab30-a3c307e7ff2e}, !- Schedule Type Limits Name
  ,                                       !- Interpolate to Timestep
  24,                                     !- Hour 1
  0,                                      !- Minute 1
  20;                                     !- Value Until Time 1

OS:Schedule:Ruleset,
  {92c4fe02-d2d2-4199-87d1-1dfb1be248c7}, !- Handle
  cooling setpoint,                       !- Name
  {a3f645df-42ab-411e-ab30-a3c307e7ff2e}, !- Schedule Type Limits Name
  {01a187ed-35f3-46a9-b5cf-3c0bf673b187}; !- Default Day Schedule Name

OS:Schedule:Day,
  {01a187ed-35f3-46a9-b5cf-3c0bf673b187}, !- Handle
  cooling setpoint default day,           !- Name
  {a3f645df-42ab-411e-ab30-a3c307e7ff2e}, !- Schedule Type Limits Name
  ,                                       !- Interpolate to Timestep
  24,                                     !- Hour 1
  0,                                      !- Minute 1
  0;                                      !- Value Until Time 1

OS:Schedule:Rule,
  {159d76f9-4fab-4ee8-ae0d-60960b0b1068}, !- Handle
  cooling setpoint allday rule,           !- Name
  {92c4fe02-d2d2-4199-87d1-1dfb1be248c7}, !- Schedule Ruleset Name
  0,                                      !- Rule Order
  {6f94bf48-ad8e-47fd-b323-1b5c4cd438b8}, !- Day Schedule Name
  Yes,                                    !- Apply Sunday
  Yes,                                    !- Apply Monday
  Yes,                                    !- Apply Tuesday
  Yes,                                    !- Apply Wednesday
  Yes,                                    !- Apply Thursday
  Yes,                                    !- Apply Friday
  Yes,                                    !- Apply Saturday
  DateRange,                              !- Date Specification Type
  1,                                      !- Start Month
  1,                                      !- Start Day
  12,                                     !- End Month
  31;                                     !- End Day

OS:Schedule:Day,
  {6f94bf48-ad8e-47fd-b323-1b5c4cd438b8}, !- Handle
  cooling setpoint day,                   !- Name
  {a3f645df-42ab-411e-ab30-a3c307e7ff2e}, !- Schedule Type Limits Name
  ,                                       !- Interpolate to Timestep
  24,                                     !- Hour 1
  0,                                      !- Minute 1
  25.5555555555556;                       !- Value Until Time 1

OS:ThermostatSetpoint:DualSetpoint,
  {110cfa80-5996-47c7-9715-bd43bd918734}, !- Handle
  conditioned space temperature setpoint, !- Name
  {5a034932-8be9-460d-a789-957f2cea2d4b}, !- Heating Setpoint Temperature Schedule Name
  {92c4fe02-d2d2-4199-87d1-1dfb1be248c7}, !- Cooling Setpoint Temperature Schedule Name
  0;                                      !- Temperature Difference Between Cutout And Setpoint {deltaC}

OS:ScheduleTypeLimits,
  {a3f645df-42ab-411e-ab30-a3c307e7ff2e}, !- Handle
  Temperature,                            !- Name
  ,                                       !- Lower Limit Value
  ,                                       !- Upper Limit Value
  Continuous,                             !- Numeric Type
  Temperature;                            !- Unit Type

OS:Surface,
  {95871aee-bdd9-43f5-985e-fa3dbd7f20da}, !- Handle
  Roof1,                                  !- Name
  RoofCeiling,                            !- Surface Type
  {e0e57875-748a-468d-b384-8ccbc60831f5}, !- Construction Name
  {95dde01c-c6bf-4bf1-baf1-887987d65eb7}, !- Space Name
  Outdoors,                               !- Outside Boundary Condition
  ,                                       !- Outside Boundary Condition Object
  SunExposed,                             !- Sun Exposure
  WindExposed,                            !- Wind Exposure
  ,                                       !- View Factor to Ground
  ,                                       !- Number of Vertices
  -26.9347048849634, 58.0557891618865, 2.4384, !- X,Y,Z Vertex 1 {m}
  -26.9347048849634, 46.7895631136661, 8.0715130241102, !- X,Y,Z Vertex 2 {m}
  -14.3386812381136, 46.7895631136661, 8.0715130241102, !- X,Y,Z Vertex 3 {m}
  -14.3386812381136, 58.0557891618865, 2.4384; !- X,Y,Z Vertex 4 {m}

OS:AdditionalProperties,
  {4247d12b-1490-4022-963d-312e990d6954}, !- Handle
  {95871aee-bdd9-43f5-985e-fa3dbd7f20da}, !- Object Name
  Length,                                 !- Feature Name 1
  Double,                                 !- Feature Data Type 1
  41.325536899113608,                     !- Feature Value 1
  Width,                                  !- Feature Name 2
  Double,                                 !- Feature Data Type 2
  41.325536899113601,                     !- Feature Value 2
  Azimuth,                                !- Feature Name 3
  Integer,                                !- Feature Data Type 3
  0,                                      !- Feature Value 3
  Tilt,                                   !- Feature Name 4
  Double,                                 !- Feature Data Type 4
  0.5,                                    !- Feature Value 4
  SurfaceType,                            !- Feature Name 5
  String,                                 !- Feature Data Type 5
  Roof;                                   !- Feature Value 5

OS:ThermalZone,
  {e71a3b08-f1a1-4c62-b011-d50584af3703}, !- Handle
  attic - vented,                         !- Name
  1,                                      !- Multiplier
  ,                                       !- Ceiling Height {m}
  356.389957095237,                       !- Volume {m3}
  ,                                       !- Floor Area {m2}
  ,                                       !- Zone Inside Convection Algorithm
  ,                                       !- Zone Outside Convection Algorithm
  ,                                       !- Zone Conditioning Equipment List Name
  {2a73f334-c4e6-41aa-8a46-036b7480b2cf}, !- Zone Air Inlet Port List
  {2ee02b78-420a-4e73-86eb-b7ee45f710be}, !- Zone Air Exhaust Port List
  {c849f579-12e9-41b9-9e92-1d277acf8c2d}, !- Zone Air Node Name
  {4a1385a9-ad0e-45e0-b556-30982637d1a8}, !- Zone Return Air Port List
  ,                                       !- Primary Daylighting Control Name
  ,                                       !- Fraction of Zone Controlled by Primary Daylighting Control
  ,                                       !- Secondary Daylighting Control Name
  ,                                       !- Fraction of Zone Controlled by Secondary Daylighting Control
  ,                                       !- Illuminance Map Name
  ,                                       !- Group Rendering Name
  ,                                       !- Thermostat Name
  No;                                     !- Use Ideal Air Loads

OS:Node,
  {062daf09-cd99-45a4-90c7-db4cff83d430}, !- Handle
  Node 2,                                 !- Name
  {c849f579-12e9-41b9-9e92-1d277acf8c2d}, !- Inlet Port
  ;                                       !- Outlet Port

OS:Connection,
  {c849f579-12e9-41b9-9e92-1d277acf8c2d}, !- Handle
  {e71a3b08-f1a1-4c62-b011-d50584af3703}, !- Source Object
  11,                                     !- Outlet Port
  {062daf09-cd99-45a4-90c7-db4cff83d430}, !- Target Object
  2;                                      !- Inlet Port

OS:PortList,
  {2a73f334-c4e6-41aa-8a46-036b7480b2cf}, !- Handle
  {e71a3b08-f1a1-4c62-b011-d50584af3703}; !- HVAC Component

OS:PortList,
  {2ee02b78-420a-4e73-86eb-b7ee45f710be}, !- Handle
  {e71a3b08-f1a1-4c62-b011-d50584af3703}; !- HVAC Component

OS:PortList,
  {4a1385a9-ad0e-45e0-b556-30982637d1a8}, !- Handle
  {e71a3b08-f1a1-4c62-b011-d50584af3703}; !- HVAC Component

OS:Sizing:Zone,
  {6917385d-fe94-4e9e-a8d7-c738ec51eb80}, !- Handle
  {e71a3b08-f1a1-4c62-b011-d50584af3703}, !- Zone or ZoneList Name
  SupplyAirTemperature,                   !- Zone Cooling Design Supply Air Temperature Input Method
  14,                                     !- Zone Cooling Design Supply Air Temperature {C}
  11.11,                                  !- Zone Cooling Design Supply Air Temperature Difference {deltaC}
  SupplyAirTemperature,                   !- Zone Heating Design Supply Air Temperature Input Method
  40,                                     !- Zone Heating Design Supply Air Temperature {C}
  11.11,                                  !- Zone Heating Design Supply Air Temperature Difference {deltaC}
  0.0085,                                 !- Zone Cooling Design Supply Air Humidity Ratio {kg-H2O/kg-air}
  0.008,                                  !- Zone Heating Design Supply Air Humidity Ratio {kg-H2O/kg-air}
  ,                                       !- Zone Heating Sizing Factor
  ,                                       !- Zone Cooling Sizing Factor
  DesignDay,                              !- Cooling Design Air Flow Method
  ,                                       !- Cooling Design Air Flow Rate {m3/s}
  ,                                       !- Cooling Minimum Air Flow per Zone Floor Area {m3/s-m2}
  ,                                       !- Cooling Minimum Air Flow {m3/s}
  ,                                       !- Cooling Minimum Air Flow Fraction
  DesignDay,                              !- Heating Design Air Flow Method
  ,                                       !- Heating Design Air Flow Rate {m3/s}
  ,                                       !- Heating Maximum Air Flow per Zone Floor Area {m3/s-m2}
  ,                                       !- Heating Maximum Air Flow {m3/s}
  ,                                       !- Heating Maximum Air Flow Fraction
  No,                                     !- Account for Dedicated Outdoor Air System
  NeutralSupplyAir,                       !- Dedicated Outdoor Air System Control Strategy
  autosize,                               !- Dedicated Outdoor Air Low Setpoint Temperature for Design {C}
  autosize,                               !- Dedicated Outdoor Air High Setpoint Temperature for Design {C}
  Sensible Load Only No Latent Load,      !- Zone Load Sizing Method
  HumidityRatioDifference,                !- Zone Latent Cooling Design Supply Air Humidity Ratio Input Method
  ,                                       !- Zone Dehumidification Design Supply Air Humidity Ratio {kgWater/kgDryAir}
  0.005,                                  !- Zone Cooling Design Supply Air Humidity Ratio Difference {kgWater/kgDryAir}
  HumidityRatioDifference,                !- Zone Latent Heating Design Supply Air Humidity Ratio Input Method
  ,                                       !- Zone Humidification Design Supply Air Humidity Ratio {kgWater/kgDryAir}
  0.005,                                  !- Zone Humidification Design Supply Air Humidity Ratio Difference {kgWater/kgDryAir}
  ,                                       !- Zone Humidistat Dehumidification Set Point Schedule Name
  ,                                       !- Zone Humidistat Humidification Set Point Schedule Name
  ,                                       !- Design Zone Air Distribution Effectiveness in Cooling Mode
  ,                                       !- Design Zone Air Distribution Effectiveness in Heating Mode
  ,                                       !- Design Zone Secondary Recirculation Fraction {dimensionless}
  ,                                       !- Design Minimum Zone Ventilation Efficiency {dimensionless}
  Coincident;                             !- Sizing Option

OS:ZoneHVAC:EquipmentList,
  {b22ba02d-0347-47ea-8234-3e4f613302dc}, !- Handle
  Zone HVAC Equipment List 2,             !- Name
  {e71a3b08-f1a1-4c62-b011-d50584af3703}; !- Thermal Zone

OS:AdditionalProperties,
  {16b41933-9348-4c0a-8aa7-184276b04b8a}, !- Handle
  {e71a3b08-f1a1-4c62-b011-d50584af3703}, !- Object Name
  ObjectType,                             !- Feature Name 1
  String,                                 !- Feature Data Type 1
  attic - vented;                         !- Feature Value 1

OS:Space,
  {95dde01c-c6bf-4bf1-baf1-887987d65eb7}, !- Handle
  attic - vented 1,                       !- Name
  ,                                       !- Space Type Name
  ,                                       !- Default Construction Set Name
  ,                                       !- Default Schedule Set Name
  ,                                       !- Direction of Relative North {deg}
  ,                                       !- X Origin {m}
  ,                                       !- Y Origin {m}
  ,                                       !- Z Origin {m}
  ,                                       !- Building Story Name
  {e71a3b08-f1a1-4c62-b011-d50584af3703}, !- Thermal Zone Name
  ,                                       !- Part of Total Floor Area
  ,                                       !- Design Specification Outdoor Air Object Name
  ,                                       !- Building Unit Name
  356.389957095237;                       !- Volume {m3}

OS:Material,
  {6c908c75-f42f-47a7-b21e-d87b85bd8390}, !- Handle
  asphalt or fiberglass shingles,         !- Name
  Rough,                                  !- Roughness
  0.00635,                                !- Thickness {m}
  0.162714,                               !- Conductivity {W/m-K}
  1121.4,                                 !- Density {kg/m3}
  1465.45,                                !- Specific Heat {J/kg-K}
  0.9,                                    !- Thermal Absorptance
  0.85,                                   !- Solar Absorptance