
OS:Version,
  {43096f25-acd5-4aea-9c70-d170444efae4}, !- Handle
  3.10.0;                                 !- Version Identifier

OS:SimulationControl,
  {e094b6e7-81b7-445a-8a3f-20bdbe086b9f}, !- Handle
  ,                                       !- Do Zone Sizing Calculation
  ,                                       !- Do System Sizing Calculation
  ,                                       !- Do Plant Sizing Calculation
  No;                                     !- Run Simulation for Sizing Periods

OS:Timestep,
  {55420c39-88bd-483f-aa6d-8b49c8860390}, !- Handle
  1;                                      !- Number of Timesteps per Hour

OS:ShadowCalculation,
  {dedfb73a-5e27-457b-9cba-7fd6844e60a9}, !- Handle
  PolygonClipping,                        !- Shading Calculation Method
  ,                                       !- Shading Calculation Update Frequency Method
  20,                                     !- Shading Calculation Update Frequency
  200,                                    !- Maximum Figures in Shadow Overlap Calculations
  ,                                       !- Polygon Clipping Algorithm
  512,                                    !- Pixel Counting Resolution
  ,                                       !- Sky Diffuse Modeling Algorithm
  No,                                     !- Output External Shading Calculation Results
  No,                                     !- Disable Self-Shading Within Shading Zone Groups
  No;                                     !- Disable Self-Shading From Shading Zone Groups to Other Zones

OS:SurfaceConvectionAlgorithm:Outside,
  {c7945084-d0dd-4b5d-80d8-621a30ddaf51}, !- Handle
  DOE-2;                                  !- Algorithm

OS:SurfaceConvectionAlgorithm:Inside,
  {858821c4-de19-4d34-b845-8f31b0f93fe0}, !- Handle
  TARP;                                   !- Algorithm

OS:ZoneCapacitanceMultiplier:ResearchSpecial,
  {96195653-6ce5-4f44-9af0-bce299842d94}, !- Handle
  7,                                      !- Temperature Capacity Multiplier
  15,                                     !- Humidity Capacity Multiplier
  ;                                       !- Carbon Dioxide Capacity Multiplier

OS:ConvergenceLimits,
  {d1a64091-a2ad-483e-8b93-decf270194a9}, !- Handle
  0;                                      !- Minimum System Timestep {minutes}

OS:RunPeriod,
  {69d0b93e-b1ff-4e9b-9faf-8adb88d98d67}, !- Handle
  Run Period 1,                           !- Name
  1,                                      !- Begin Month
  1,                                      !- Begin Day of Month
  12,                                     !- End Month
  31,                                     !- End Day of Month
  ,                                       !- Use Weather File Holidays and Special Days
  ,                                       !- Use Weather File Daylight Saving Period
  ,                                       !- Apply Weekend Holiday Rule
  ,                                       !- Use Weather File Rain Indicators
  ,                                       !- Use Weather File Snow Indicators
  ;                                       !- Number of Times Runperiod to be Repeated

OS:PerformancePrecisionTradeoffs,
  {5815ece8-a359-4f4c-b8d6-60e2b7050511}, !- Handle
  ,                                       !- Use Coil Direct Solutions
  CarrollMRT;                             !- Zone Radiant Exchange Algorithm

OS:WeatherFile,
  {6f845343-41a3-4e6e-be7e-44f788669710}, !- Handle
  Buffalo Niagara Intl Ap,                !- City
  NY,                                     !- State Province Region
  USA,                                    !- Country
  TMY3,                                   !- Data Source
  725280,                                 !- WMO Number
  42.93,                                  !- Latitude {deg}
  -78.73,                                 !- Longitude {deg}
  -5,                                     !- Time Zone {hr}
  215,                                    !- Elevation {m}
  /Users/nmoore/github/urbanopt-example-geojson-project/example_project/weather/USA_NY_Buffalo-Greater.Buffalo.Intl.AP.725280_TMY3.epw, !- Url
  6B50E0FF,                               !- Checksum
  ,                                       !- Start Date Actual Year
  Sunday;                                 !- Start Day of Week

OS:YearDescription,
  {d1ded3f3-5e29-4a17-99f2-dcbfcf2a4e42}, !- Handle
  2007,                                   !- Calendar Year
  ,                                       !- Day of Week for Start Day
  ;                                       !- Is Leap Year

OS:Site,
  {e120d1e6-55c4-4e38-95b7-8fea6dca3a34}, !- Handle
  Buffalo Niagara Intl Ap_NY,             !- Name
  42.93,                                  !- Latitude {deg}
  -78.73,                                 !- Longitude {deg}
  -5,                                     !- Time Zone {hr}
  215,                                    !- Elevation {m}
  Suburbs,                                !- Terrain
  Yes;                                    !- Keep Site Location Information

OS:RunPeriodControl:DaylightSavingTime,
  {8736fb87-d101-46d7-8e15-fd502bf77d6f}, !- Handle
  Mar 12,                                 !- Start Date
  Nov 5;                                  !- End Date

OS:Site:GroundTemperature:Shallow,
  {e315a567-dc9a-4b21-be4f-679bebc31f9c}, !- Handle
  4.30207395723828,                       !- January Surface Ground Temperature {C}
  2.29327249652502,                       !- February Surface Ground Temperature {C}
  2.13240047156047,                       !- March Surface Ground Temperature {C}
  3.08567940719286,                       !- April Surface Ground Temperature {C}
  6.91256312497526,                       !- May Surface Ground Temperature {C}
  10.7216195949507,                       !- June Surface Ground Temperature {C}
  14.0238679822574,                       !- July Surface Ground Temperature {C}
  16.1157611184724,                       !- August Surface Ground Temperature {C}
  16.2934789303462,                       !- September Surface Ground Temperature {C}
  14.5920754632847,                       !- October Surface Ground Temperature {C}
  11.374036348653,                        !- November Surface Ground Temperature {C}
  7.68182621661674;                       !- December Surface Ground Temperature {C}

OS:ThermalZone,
  {8fd77a63-a89e-4457-96d9-fd9b60f422f8}, !- Handle
  conditioned space,                      !- Name
  1,                                      !- Multiplier
  ,                                       !- Ceiling Height {m}
  692.06373070848,                        !- Volume {m3}
  ,                                       !- Floor Area {m2}
  ,                                       !- Zone Inside Convection Algorithm
  ,                                       !- Zone Outside Convection Algorithm
  ,                                       !- Zone Conditioning Equipment List Name
  {4d546300-aef3-4ea4-9e44-99f74f2ac6da}, !- Zone Air Inlet Port List
  {0336f598-c4a5-4348-ae49-2a9053242924}, !- Zone Air Exhaust Port List
  {cead20f1-86b1-4f20-ad09-069bd9bdf011}, !- Zone Air Node Name
  {b4b96a1b-ff2e-4970-aaff-d87a411c43cb}, !- Zone Return Air Port List
  ,                                       !- Primary Daylighting Control Name
  ,                                       !- Fraction of Zone Controlled by Primary Daylighting Control
  ,                                       !- Secondary Daylighting Control Name
  ,                                       !- Fraction of Zone Controlled by Secondary Daylighting Control
  ,                                       !- Illuminance Map Name
  ,                                       !- Group Rendering Name
  {44c75a23-5865-4253-8805-0afd09e9ed5e}, !- Thermostat Name
  No;                                     !- Use Ideal Air Loads

OS:Node,
  {af2ec864-639e-4a7d-b75a-3a5b664f2b7c}, !- Handle
  Node 1,                                 !- Name
  {cead20f1-86b1-4f20-ad09-069bd9bdf011}, !- Inlet Port
  ;                                       !- Outlet Port

OS:Connection,
  {cead20f1-86b1-4f20-ad09-069bd9bdf011}, !- Handle
  {8fd77a63-a89e-4457-96d9-fd9b60f422f8}, !- Source Object
  11,                                     !- Outlet Port
  {af2ec864-639e-4a7d-b75a-3a5b664f2b7c}, !- Target Object
  2;                                      !- Inlet Port

OS:PortList,
  {4d546300-aef3-4ea4-9e44-99f74f2ac6da}, !- Handle
  {8fd77a63-a89e-4457-96d9-fd9b60f422f8}, !- HVAC Component
  {a6fa70a2-4826-4ab3-96f4-8f488a12d726}; !- Port 1

OS:PortList,
  {0336f598-c4a5-4348-ae49-2a9053242924}, !- Handle
  {8fd77a63-a89e-4457-96d9-fd9b60f422f8}; !- HVAC Component

OS:PortList,
  {b4b96a1b-ff2e-4970-aaff-d87a411c43cb}, !- Handle
  {8fd77a63-a89e-4457-96d9-fd9b60f422f8}, !- HVAC Component
  {7e32b56b-7956-460a-a2e4-d078a275dc06}; !- Port 1

OS:Sizing:Zone,
  {68c1e451-6e75-4a3d-b422-e76967320282}, !- Handle
  {8fd77a63-a89e-4457-96d9-fd9b60f422f8}, !- Zone or ZoneList Name
  SupplyAirTemperature,                   !- Zone Cooling Design Supply Air Temperature Input Method
  14,                                     !- Zone Cooling Design Supply Air Temperature {C}
  11.11,                                  !- Zone Cooling Design Supply Air Temperature Difference {deltaC}
  SupplyAirTemperature,                   !- Zone Heating Design Supply Air Temperature Input Method
  40,                                     !- Zone Heating Design Supply Air Temperature {C}
  11.11,                                  !- Zone Heating Design Supply Air Temperature Difference {deltaC}
  0.0085,                                 !- Zone Cooling Design Supply Air Humidity Ratio {kg-H2O/kg-air}
  0.008,                                  !- Zone Heating Design Supply Air Humidity Ratio {kg-H2O/kg-air}
  ,                                       !- Zone Heating Sizing Factor
  ,                                       !- Zone Cooling Sizing Factor
  DesignDay,                              !- Cooling Design Air Flow Method
  ,                                       !- Cooling Design Air Flow Rate {m3/s}
  ,                                       !- Cooling Minimum Air Flow per Zone Floor Area {m3/s-m2}
  ,                                       !- Cooling Minimum Air Flow {m3/s}
  ,                                       !- Cooling Minimum Air Flow Fraction
  DesignDay,                              !- Heating Design Air Flow Method
  ,                                       !- Heating Design Air Flow Rate {m3/s}
  ,                                       !- Heating Maximum Air Flow per Zone Floor Area {m3/s-m2}
  ,                                       !- Heating Maximum Air Flow {m3/s}
  ,                                       !- Heating Maximum Air Flow Fraction
  No,                                     !- Account for Dedicated Outdoor Air System
  NeutralSupplyAir,                       !- Dedicated Outdoor Air System Control Strategy
  autosize,                               !- Dedicated Outdoor Air Low Setpoint Temperature for Design {C}
  autosize,                               !- Dedicated Outdoor Air High Setpoint Temperature for Design {C}
  Sensible Load Only No Latent Load,      !- Zone Load Sizing Method
  HumidityRatioDifference,                !- Zone Latent Cooling Design Supply Air Humidity Ratio Input Method
  ,                                       !- Zone Dehumidification Design Supply Air Humidity Ratio {kgWater/kgDryAir}
  0.005,                                  !- Zone Cooling Design Supply Air Humidity Ratio Difference {kgWater/kgDryAir}
  HumidityRatioDifference,                !- Zone Latent Heating Design Supply Air Humidity Ratio Input Method
  ,                                       !- Zone Humidification Design Supply Air Humidity Ratio {kgWater/kgDryAir}
  0.005,                                  !- Zone Humidification Design Supply Air Humidity Ratio Difference {kgWater/kgDryAir}
  ,                                       !- Zone Humidistat Dehumidification Set Point Schedule Name
  ,                                       !- Zone Humidistat Humidification Set Point Schedule Name
  ,                                       !- Design Zone Air Distribution Effectiveness in Cooling Mode
  ,                                       !- Design Zone Air Distribution Effectiveness in Heating Mode
  ,                                       !- Design Zone Secondary Recirculation Fraction {dimensionless}
  ,                                       !- Design Minimum Zone Ventilation Efficiency {dimensionless}
  Coincident;                             !- Sizing Option

OS:ZoneHVAC:EquipmentList,
  {5618385e-9142-4176-b5a0-6b13bb227c75}, !- Handle
  Zone HVAC Equipment List 1,             !- Name
  {8fd77a63-a89e-4457-96d9-fd9b60f422f8}, !- Thermal Zone
  ,                                       !- Load Distribution Scheme
  {2d4f29d5-6b79-4483-aa83-0177d95ded29}, !- Zone Equipment 1
  1,                                      !- Zone Equipment Cooling Sequence 1
  1,                                      !- Zone Equipment Heating or No-Load Sequence 1
  {c9a70859-3dc5-4063-80e1-cadc7f7f9f01}, !- Zone Equipment Sequential Cooling Fraction Schedule Name 1
  {3eb9743b-5c9f-4c2d-879c-eb5c5d816076}; !- Zone Equipment Sequential Heating Fraction Schedule Name 1

OS:AdditionalProperties,
  {f3b48cc3-cbf5-4413-a886-4e6cf03f94f7}, !- Handle
  {8fd77a63-a89e-4457-96d9-fd9b60f422f8}, !- Object Name
  ObjectType,                             !- Feature Name 1
  String,                                 !- Feature Data Type 1
  conditioned space;                      !- Feature Value 1

OS:Space,
  {de2f98d2-7f5b-4a72-84e6-a5142e1d8cca}, !- Handle
  conditioned space 1,                    !- Name
  ,                                       !- Space Type Name
  ,                                       !- Default Construction Set Name
  ,                                       !- Default Schedule Set Name
  ,                                       !- Direction of Relative North {deg}
  ,                                       !- X Origin {m}
  ,                                       !- Y Origin {m}
  ,                                       !- Z Origin {m}
  ,                                       !- Building Story Name
  {8fd77a63-a89e-4457-96d9-fd9b60f422f8}, !- Thermal Zone Name
  ,                                       !- Part of Total Floor Area
  ,                                       !- Design Specification Outdoor Air Object Name
  ,                                       !- Building Unit Name
  692.06373070848;                        !- Volume {m3}

OS:Schedule:Ruleset,
  {4182196d-d2c1-488a-afcf-364c949b39f9}, !- Handle
  heating setpoint,                       !- Name
  {e33542c8-da81-4bdf-b125-e5b3a377588b}, !- Schedule Type Limits Name
  {0470fd1a-a92f-4548-9cbe-905b5c247ae2}; !- Default Day Schedule Name

OS:Schedule:Day,
  {0470fd1a-a92f-4548-9cbe-905b5c247ae2}, !- Handle
  heating setpoint default day,           !- Name
  {e33542c8-da81-4bdf-b125-e5b3a377588b}, !- Schedule Type Limits Name
  ,                                       !- Interpolate to Timestep
  24,                                     !- Hour 1
  0,                                      !- Minute 1
  0;                                      !- Value Until Time 1

OS:Schedule:Rule,
  {ffb5a35e-f6c3-486d-bbbb-ff1c8972b554}, !- Handle
  heating setpoint allday rule,           !- Name
  {4182196d-d2c1-488a-afcf-364c949b39f9}, !- Schedule Ruleset Name
  0,                                      !- Rule Order
  {0898b618-d115-4553-b97e-9fde01382ae4}, !- Day Schedule Name
  Yes,                                    !- Apply Sunday
  Yes,                                    !- Apply Monday
  Yes,                                    !- Apply Tuesday
  Yes,                                    !- Apply Wednesday
  Yes,                                    !- Apply Thursday
  Yes,                                    !- Apply Friday
  Yes,                                    !- Apply Saturday
  DateRange,                              !- Date Specification Type
  1,                                      !- Start Month
  1,                                      !- Start Day
  12,                                     !- End Month
  31;                                     !- End Day

OS:Schedule:Day,
  {0898b618-d115-4553-b97e-9fde01382ae4}, !- Handle
  heating setpoint day,                   !- Name
  {e33542c8-da81-4bdf-b125-e5b3a377588b}, !- Schedule Type Limits Name
  ,                                       !- Interpolate to Timestep
  24,                                     !- Hour 1
  0,                                      !- Minute 1
  20;                                     !- Value Until Time 1

OS:Schedule:Ruleset,
  {c13e5062-6a77-499f-9c62-6b8527deeded}, !- Handle
  cooling setpoint,                       !- Name
  {e33542c8-da81-4bdf-b125-e5b3a377588b}, !- Schedule Type Limits Name
  {20e41526-6ef1-40f4-9815-cfaacc49de19}; !- Default Day Schedule Name

OS:Schedule:Day,
  {20e41526-6ef1-40f4-9815-cfaacc49de19}, !- Handle
  cooling setpoint default day,           !- Name
  {e33542c8-da81-4bdf-b125-e5b3a377588b}, !- Schedule Type Limits Name
  ,                                       !- Interpolate to Timestep
  24,                                     !- Hour 1
  0,                                      !- Minute 1
  0;                                      !- Value Until Time 1

OS:Schedule:Rule,
  {711bb3e4-1f1e-452a-b8dc-fb9a924fee04}, !- Handle
  cooling setpoint allday rule,           !- Name
  {c13e5062-6a77-499f-9c62-6b8527deeded}, !- Schedule Ruleset Name
  0,                                      !- Rule Order
  {123009e2-0e98-4f70-a286-10f140e08b2b}, !- Day Schedule Name
  Yes,                                    !- Apply Sunday
  Yes,                                    !- Apply Monday
  Yes,                                    !- Apply Tuesday
  Yes,                                    !- Apply Wednesday
  Yes,                                    !- Apply Thursday
  Yes,                                    !- Apply Friday
  Yes,                                    !- Apply Saturday
  DateRange,                              !- Date Specification Type
  1,                                      !- Start Month
  1,                                      !- Start Day
  12,                                     !- End Month
  31;                                     !- End Day

OS:Schedule:Day,
  {123009e2-0e98-4f70-a286-10f140e08b2b}, !- Handle
  cooling setpoint day,                   !- Name
  {e33542c8-da81-4bdf-b125-e5b3a377588b}, !- Schedule Type Limits Name
  ,                                       !- Interpolate to Timestep
  24,                                     !- Hour 1
  0,                                      !- Minute 1
  25.5555555555556;                       !- Value Until Time 1

OS:ThermostatSetpoint:DualSetpoint,
  {44c75a23-5865-4253-8805-0afd09e9ed5e}, !- Handle
  conditioned space temperature setpoint, !- Name
  {4182196d-d2c1-488a-afcf-364c949b39f9}, !- Heating Setpoint Temperature Schedule Name
  {c13e5062-6a77-499f-9c62-6b8527deeded}, !- Cooling Setpoint Temperature Schedule Name
  0;                                      !- Temperature Difference Between Cutout And Setpoint {deltaC}

OS:ScheduleTypeLimits,
  {e33542c8-da81-4bdf-b125-e5b3a377588b}, !- Handle
  Temperature,                            !- Name
  ,                                       !- Lower Limit Value
  ,                                       !- Upper Limit Value
  Continuous,                             !- Numeric Type
  Temperature;                            !- Unit Type

OS:Surface,
  {1102fb07-a663-411d-a890-5b955240bf2b}, !- Handle
  Roof1,                                  !- Name
  RoofCeiling,                            !- Surface Type
  {6b720449-fd7c-425e-be68-0539039e9f40}, !- Construction Name
  {d5a80274-62b9-4422-b9a1-43ca62168809}, !- Space Name
  Outdoors,                               !- Outside Boundary Condition
  ,                                       !- Outside Boundary Condition Object
  SunExposed,                             !- Sun Exposure
  WindExposed,                            !- Wind Exposure
  ,                                       !- View Factor to Ground
  ,                                       !- Number of Vertices
  -19.6245848849634, 50.7456691618865, 2.4384, !- X,Y,Z Vertex 1 {m}
  -19.6245848849634, 39.4794431136661, 8.0715130241102, !- X,Y,Z Vertex 2 {m}
  -7.02856123811356, 39.4794431136661, 8.0715130241102, !- X,Y,Z Vertex 3 {m}
  -7.02856123811356, 50.7456691618865, 2.4384; !- X,Y,Z Vertex 4 {m}

OS:AdditionalProperties,
  {1e165252-ec34-4340-afe3-585e1c7c542a}, !- Handle
  {1102fb07-a663-411d-a890-5b955240bf2b}, !- Object Name
  Length,                                 !- Feature Name 1
  Double,                                 !- Feature Data Type 1
  41.325536899113608,                     !- Feature Value 1
  Width,                                  !- Feature Name 2
  Double,                                 !- Feature Data Type 2
  41.325536899113601,                     !- Feature Value 2
  Azimuth,                                !- Feature Name 3
  Integer,                                !- Feature Data Type 3
  0,                                      !- Feature Value 3
  Tilt,                                   !- Feature Name 4
  Double,                                 !- Feature Data Type 4
  0.5,                                    !- Feature Value 4
  SurfaceType,                            !- Feature Name 5
  String,                                 !- Feature Data Type 5
  Roof;                                   !- Feature Value 5

OS:ThermalZone,
  {f9c1dd01-3b41-404c-9369-764045907283}, !- Handle
  attic - vented,                         !- Name
  1,                                      !- Multiplier
  ,                                       !- Ceiling Height {m}
  443.592808147228,                       !- Volume {m3}
  ,                                       !- Floor Area {m2}
  ,                                       !- Zone Inside Convection Algorithm
  ,                                       !- Zone Outside Convection Algorithm
  ,                                       !- Zone Conditioning Equipment List Name
  {21b6ed6b-6a0e-4aa0-bd1a-f2912b388506}, !- Zone Air Inlet Port List
  {8614c318-1d86-493a-9f55-b38587c37305}, !- Zone Air Exhaust Port List
  {0b2a3068-6f9d-446a-9b94-1d942dafb873}, !- Zone Air Node Name
  {d0e29ef8-7193-4eb7-bbf7-4606ba8bd260}, !- Zone Return Air Port List
  ,                                       !- Primary Daylighting Control Name
  ,                                       !- Fraction of Zone Controlled by Primary Daylighting Control
  ,                                       !- Secondary Daylighting Control Name
  ,                                       !- Fraction of Zone Controlled by Secondary Daylighting Control
  ,                                       !- Illuminance Map Name
  ,                                       !- Group Rendering Name
  ,                                       !- Thermostat Name
  No;                                     !- Use Ideal Air Loads

OS:Node,
  {2af6f671-a83b-4413-b35b-a6dc485d6672}, !- Handle
  Node 2,                                 !- Name
  {0b2a3068-6f9d-446a-9b94-1d942dafb873}, !- Inlet Port
  ;                                       !- Outlet Port

OS:Connection,
  {0b2a3068-6f9d-446a-9b94-1d942dafb873}, !- Handle
  {f9c1dd01-3b41-404c-9369-764045907283}, !- Source Object
  11,                                     !- Outlet Port
  {2af6f671-a83b-4413-b35b-a6dc485d6672}, !- Target Object
  2;                                      !- Inlet Port

OS:PortList,
  {21b6ed6b-6a0e-4aa0-bd1a-f2912b388506}, !- Handle
  {f9c1dd01-3b41-404c-9369-764045907283}; !- HVAC Component

OS:PortList,
  {8614c318-1d86-493a-9f55-b38587c37305}, !- Handle
  {f9c1dd01-3b41-404c-9369-764045907283}; !- HVAC Component

OS:PortList,
  {d0e29ef8-7193-4eb7-bbf7-4606ba8bd260}, !- Handle
  {f9c1dd01-3b41-404c-9369-764045907283}; !- HVAC Component

OS:Sizing:Zone,
  {759b968f-4cd2-47aa-b5cb-a3568fbf4673}, !- Handle
  {f9c1dd01-3b41-404c-9369-764045907283}, !- Zone or ZoneList Name
  SupplyAirTemperature,                   !- Zone Cooling Design Supply Air Temperature Input Method
  14,                                     !- Zone Cooling Design Supply Air Temperature {C}
  11.11,                                  !- Zone Cooling Design Supply Air Temperature Difference {deltaC}
  SupplyAirTemperature,                   !- Zone Heating Design Supply Air Temperature Input Method
  40,                                     !- Zone Heating Design Supply Air Temperature {C}
  11.11,                                  !- Zone Heating Design Supply Air Temperature Difference {deltaC}
  0.0085,                                 !- Zone Cooling Design Supply Air Humidity Ratio {kg-H2O/kg-air}
  0.008,                                  !- Zone Heating Design Supply Air Humidity Ratio {kg-H2O/kg-air}
  ,                                       !- Zone Heating Sizing Factor
  ,                                       !- Zone Cooling Sizing Factor
  DesignDay,                              !- Cooling Design Air Flow Method
  ,                                       !- Cooling Design Air Flow Rate {m3/s}
  ,                                       !- Cooling Minimum Air Flow per Zone Floor Area {m3/s-m2}
  ,                                       !- Cooling Minimum Air Flow {m3/s}
  ,                                       !- Cooling Minimum Air Flow Fraction
  DesignDay,                              !- Heating Design Air Flow Method
  ,                                       !- Heating Design Air Flow Rate {m3/s}
  ,                                       !- Heating Maximum Air Flow per Zone Floor Area {m3/s-m2}
  ,                                       !- Heating Maximum Air Flow {m3/s}
  ,                                       !- Heating Maximum Air Flow Fraction
  No,                                     !- Account for Dedicated Outdoor Air System
  NeutralSupplyAir,                       !- Dedicated Outdoor Air System Control Strategy
  autosize,                               !- Dedicated Outdoor Air Low Setpoint Temperature for Design {C}
  autosize,                               !- Dedicated Outdoor Air High Setpoint Temperature for Design {C}
  Sensible Load Only No Latent Load,      !- Zone Load Sizing Method
  HumidityRatioDifference,                !- Zone Latent Cooling Design Supply Air Humidity Ratio Input Method
  ,                                       !- Zone Dehumidification Design Supply Air Humidity Ratio {kgWater/kgDryAir}
  0.005,                                  !- Zone Cooling Design Supply Air Humidity Ratio Difference {kgWater/kgDryAir}
  HumidityRatioDifference,                !- Zone Latent Heating Design Supply Air Humidity Ratio Input Method
  ,                                       !- Zone Humidification Design Supply Air Humidity Ratio {kgWater/kgDryAir}
  0.005,                                  !- Zone Humidification Design Supply Air Humidity Ratio Difference {kgWater/kgDryAir}
  ,                                       !- Zone Humidistat Dehumidification Set Point Schedule Name
  ,                                       !- Zone Humidistat Humidification Set Point Schedule Name
  ,                                       !- Design Zone Air Distribution Effectiveness in Cooling Mode
  ,                                       !- Design Zone Air Distribution Effectiveness in Heating Mode
  ,                                       !- Design Zone Secondary Recirculation Fraction {dimensionless}
  ,                                       !- Design Minimum Zone Ventilation Efficiency {dimensionless}
  Coincident;                             !- Sizing Option

OS:ZoneHVAC:EquipmentList,
  {0e5eb841-fabe-4752-95da-a4cf913fde5a}, !- Handle
  Zone HVAC Equipment List 2,             !- Name
  {f9c1dd01-3b41-404c-9369-764045907283}; !- Thermal Zone

OS:AdditionalProperties,
  {13ab3c7c-e473-49f0-a18d-ed5266de05a3}, !- Handle
  {f9c1dd01-3b41-404c-9369-764045907283}, !- Object Name
  ObjectType,                             !- Feature Name 1
  String,                                 !- Feature Data Type 1
  attic - vented;                         !- Feature Value 1

OS:Space,
  {d5a80274-62b9-4422-b9a1-43ca62168809}, !- Handle
  attic - vented 1,                       !- Name
  ,                                       !- Space Type Name
  ,                                       !- Default Construction Set Name
  ,                                       !- Default Schedule Set Name
  ,                                       !- Direction of Relative North {deg}
  ,                                       !- X Origin {m}
  ,                                       !- Y Origin {m}
  ,                                       !- Z Origin {m}
  ,                                       !- Building Story Name
  {f9c1dd01-3b41-404c-9369-764045907283}, !- Thermal Zone Name
  ,                                       !- Part of Total Floor Area
  ,                                       !- Design Specification Outdoor Air Object Name
  ,                                       !- Building Unit Name
  443.592808147228;                       !- Volume {m3}

OS:Material,
  {ac1c6c9c-5265-4c19-816a-3baf1c5a2dc3}, !- Handle
  asphalt or fiberglass shingles,         !- Name
  Rough,                                  !- Roughness
  0.00635,                                !- Thickness {m}
  0.162714,                               !- Conductivity {W/m-K}
  1121.4,                                 !- Density {kg/m3}
  1465.45,                                !- Specific Heat {J/kg-K}
  0.9,                                    !- Thermal Absorptance
  0.85,                                   !- Solar Absorptance