
OS:Version,
  {dacb5d3b-f3a1-4b6f-b0eb-d1a397471196}, !- Handle
  3.9.0;                                  !- Version Identifier

OS:SimulationControl,
  {5f7ad0b0-74fb-47cc-921f-6b83a9fcb046}, !- Handle
  ,                                       !- Do Zone Sizing Calculation
  ,                                       !- Do System Sizing Calculation
  ,                                       !- Do Plant Sizing Calculation
  No;                                     !- Run Simulation for Sizing Periods

OS:Timestep,
  {dc36af0d-02d7-4ce5-9d07-937895e2cd73}, !- Handle
  1;                                      !- Number of Timesteps per Hour

OS:ShadowCalculation,
  {e28df921-3a6d-4a40-9d0a-6d7bbb180ca0}, !- Handle
  PolygonClipping,                        !- Shading Calculation Method
  ,                                       !- Shading Calculation Update Frequency Method
  20,                                     !- Shading Calculation Update Frequency
  200,                                    !- Maximum Figures in Shadow Overlap Calculations
  ,                                       !- Polygon Clipping Algorithm
  512,                                    !- Pixel Counting Resolution
  ,                                       !- Sky Diffuse Modeling Algorithm
  No,                                     !- Output External Shading Calculation Results
  No,                                     !- Disable Self-Shading Within Shading Zone Groups
  No;                                     !- Disable Self-Shading From Shading Zone Groups to Other Zones

OS:SurfaceConvectionAlgorithm:Outside,
  {fd694328-383b-4b2f-a7d1-ebb1c3961107}, !- Handle
  DOE-2;                                  !- Algorithm

OS:SurfaceConvectionAlgorithm:Inside,
  {6c9f6fe5-8ce4-45f8-92ab-27c6086a070c}, !- Handle
  TARP;                                   !- Algorithm

OS:ZoneCapacitanceMultiplier:ResearchSpecial,
  {c44ae0c7-1e3f-45d5-8f66-81469bd969ef}, !- Handle
  7,                                      !- Temperature Capacity Multiplier
  15,                                     !- Humidity Capacity Multiplier
  ;                                       !- Carbon Dioxide Capacity Multiplier

OS:ConvergenceLimits,
  {ab3497af-3385-4236-b8b6-9a09b521733a}, !- Handle
  0;                                      !- Minimum System Timestep {minutes}

OS:RunPeriod,
  {a1d1f2e3-52e2-4de7-a41f-9b2d07203d4a}, !- Handle
  Run Period 1,                           !- Name
  1,                                      !- Begin Month
  1,                                      !- Begin Day of Month
  12,                                     !- End Month
  31,                                     !- End Day of Month
  ,                                       !- Use Weather File Holidays and Special Days
  ,                                       !- Use Weather File Daylight Saving Period
  ,                                       !- Apply Weekend Holiday Rule
  ,                                       !- Use Weather File Rain Indicators
  ,                                       !- Use Weather File Snow Indicators
  ;                                       !- Number of Times Runperiod to be Repeated

OS:PerformancePrecisionTradeoffs,
  {4c92f8af-2af9-40ad-8ccf-a6ddfd56ec8d}, !- Handle
  ,                                       !- Use Coil Direct Solutions
  CarrollMRT;                             !- Zone Radiant Exchange Algorithm

OS:WeatherFile,
  {06228b33-88d8-470c-bbef-8a09ff26d71b}, !- Handle
  Buffalo Niagara Intl Ap,                !- City
  NY,                                     !- State Province Region
  USA,                                    !- Country
  TMY3,                                   !- Data Source
  725280,                                 !- WMO Number
  42.93,                                  !- Latitude {deg}
  -78.73,                                 !- Longitude {deg}
  -5,                                     !- Time Zone {hr}
  215,                                    !- Elevation {m}
  /Users/nmoore/github/urbanopt-example-geojson-project/example_project/weather/USA_NY_Buffalo-Greater.Buffalo.Intl.AP.725280_TMY3.epw, !- Url
  6B50E0FF,                               !- Checksum
  ,                                       !- Start Date Actual Year
  Sunday;                                 !- Start Day of Week

OS:YearDescription,
  {b2fde39f-b271-4519-807a-384a62d409eb}, !- Handle
  2007,                                   !- Calendar Year
  ,                                       !- Day of Week for Start Day
  ;                                       !- Is Leap Year

OS:Site,
  {e39f15ed-4f4e-4690-b261-5dbe666a07cf}, !- Handle
  Buffalo Niagara Intl Ap_NY,             !- Name
  42.93,                                  !- Latitude {deg}
  -78.73,                                 !- Longitude {deg}
  -5,                                     !- Time Zone {hr}
  215,                                    !- Elevation {m}
  Suburbs,                                !- Terrain
  Yes;                                    !- Keep Site Location Information

OS:RunPeriodControl:DaylightSavingTime,
  {10fef1bf-5ddc-405c-8cfc-c17110d6ac0f}, !- Handle
  Mar 12,                                 !- Start Date
  Nov 5;                                  !- End Date

OS:Site:GroundTemperature:Shallow,
  {df2d9192-07b6-44b0-928b-3ef409fe7e19}, !- Handle
  4.30207395723828,                       !- January Surface Ground Temperature {C}
  2.29327249652502,                       !- February Surface Ground Temperature {C}
  2.13240047156047,                       !- March Surface Ground Temperature {C}
  3.08567940719286,                       !- April Surface Ground Temperature {C}
  6.91256312497526,                       !- May Surface Ground Temperature {C}
  10.7216195949507,                       !- June Surface Ground Temperature {C}
  14.0238679822574,                       !- July Surface Ground Temperature {C}
  16.1157611184724,                       !- August Surface Ground Temperature {C}
  16.2934789303462,                       !- September Surface Ground Temperature {C}
  14.5920754632847,                       !- October Surface Ground Temperature {C}
  11.374036348653,                        !- November Surface Ground Temperature {C}
  7.68182621661674;                       !- December Surface Ground Temperature {C}

OS:ThermalZone,
  {2a2ca8fc-2b9d-44ba-8d5f-23a94ecd3542}, !- Handle
  conditioned space,                      !- Name
  1,                                      !- Multiplier
  ,                                       !- Ceiling Height {m}
  692.06373070848,                        !- Volume {m3}
  ,                                       !- Floor Area {m2}
  ,                                       !- Zone Inside Convection Algorithm
  ,                                       !- Zone Outside Convection Algorithm
  ,                                       !- Zone Conditioning Equipment List Name
  {579fee84-10e1-425c-af6f-7f606da3325f}, !- Zone Air Inlet Port List
  {25667794-8fc8-4fd7-8eb5-2dd2947c9543}, !- Zone Air Exhaust Port List
  {bcd3a702-5e28-4f9a-8239-d5be6c07ea4c}, !- Zone Air Node Name
  {d0f230a5-970d-4323-9a15-7d0271188eab}, !- Zone Return Air Port List
  ,                                       !- Primary Daylighting Control Name
  ,                                       !- Fraction of Zone Controlled by Primary Daylighting Control
  ,                                       !- Secondary Daylighting Control Name
  ,                                       !- Fraction of Zone Controlled by Secondary Daylighting Control
  ,                                       !- Illuminance Map Name
  ,                                       !- Group Rendering Name
  {3f21e5c3-7377-4437-84b4-c0a20eccae34}, !- Thermostat Name
  No;                                     !- Use Ideal Air Loads

OS:Node,
  {d728d230-770b-4728-b33d-69f33bcfa567}, !- Handle
  Node 1,                                 !- Name
  {bcd3a702-5e28-4f9a-8239-d5be6c07ea4c}, !- Inlet Port
  ;                                       !- Outlet Port

OS:Connection,
  {bcd3a702-5e28-4f9a-8239-d5be6c07ea4c}, !- Handle
  {2a2ca8fc-2b9d-44ba-8d5f-23a94ecd3542}, !- Source Object
  11,                                     !- Outlet Port
  {d728d230-770b-4728-b33d-69f33bcfa567}, !- Target Object
  2;                                      !- Inlet Port

OS:PortList,
  {579fee84-10e1-425c-af6f-7f606da3325f}, !- Handle
  {2a2ca8fc-2b9d-44ba-8d5f-23a94ecd3542}, !- HVAC Component
  {1271259b-2981-4481-8c2b-0b176e1e3c3f}; !- Port 1

OS:PortList,
  {25667794-8fc8-4fd7-8eb5-2dd2947c9543}, !- Handle
  {2a2ca8fc-2b9d-44ba-8d5f-23a94ecd3542}; !- HVAC Component

OS:PortList,
  {d0f230a5-970d-4323-9a15-7d0271188eab}, !- Handle
  {2a2ca8fc-2b9d-44ba-8d5f-23a94ecd3542}, !- HVAC Component
  {3da803ee-2385-4fbf-bf32-ef6d8fb209d7}; !- Port 1

OS:Sizing:Zone,
  {66c50614-ddba-46c6-b3d1-c6a99105f0a2}, !- Handle
  {2a2ca8fc-2b9d-44ba-8d5f-23a94ecd3542}, !- Zone or ZoneList Name
  SupplyAirTemperature,                   !- Zone Cooling Design Supply Air Temperature Input Method
  14,                                     !- Zone Cooling Design Supply Air Temperature {C}
  11.11,                                  !- Zone Cooling Design Supply Air Temperature Difference {deltaC}
  SupplyAirTemperature,                   !- Zone Heating Design Supply Air Temperature Input Method
  40,                                     !- Zone Heating Design Supply Air Temperature {C}
  11.11,                                  !- Zone Heating Design Supply Air Temperature Difference {deltaC}
  0.0085,                                 !- Zone Cooling Design Supply Air Humidity Ratio {kg-H2O/kg-air}
  0.008,                                  !- Zone Heating Design Supply Air Humidity Ratio {kg-H2O/kg-air}
  ,                                       !- Zone Heating Sizing Factor
  ,                                       !- Zone Cooling Sizing Factor
  DesignDay,                              !- Cooling Design Air Flow Method
  ,                                       !- Cooling Design Air Flow Rate {m3/s}
  ,                                       !- Cooling Minimum Air Flow per Zone Floor Area {m3/s-m2}
  ,                                       !- Cooling Minimum Air Flow {m3/s}
  ,                                       !- Cooling Minimum Air Flow Fraction
  DesignDay,                              !- Heating Design Air Flow Method
  ,                                       !- Heating Design Air Flow Rate {m3/s}
  ,                                       !- Heating Maximum Air Flow per Zone Floor Area {m3/s-m2}
  ,                                       !- Heating Maximum Air Flow {m3/s}
  ,                                       !- Heating Maximum Air Flow Fraction
  No,                                     !- Account for Dedicated Outdoor Air System
  NeutralSupplyAir,                       !- Dedicated Outdoor Air System Control Strategy
  autosize,                               !- Dedicated Outdoor Air Low Setpoint Temperature for Design {C}
  autosize,                               !- Dedicated Outdoor Air High Setpoint Temperature for Design {C}
  Sensible Load Only No Latent Load,      !- Zone Load Sizing Method
  HumidityRatioDifference,                !- Zone Latent Cooling Design Supply Air Humidity Ratio Input Method
  ,                                       !- Zone Dehumidification Design Supply Air Humidity Ratio {kgWater/kgDryAir}
  0.005,                                  !- Zone Cooling Design Supply Air Humidity Ratio Difference {kgWater/kgDryAir}
  HumidityRatioDifference,                !- Zone Latent Heating Design Supply Air Humidity Ratio Input Method
  ,                                       !- Zone Humidification Design Supply Air Humidity Ratio {kgWater/kgDryAir}
  0.005,                                  !- Zone Humidification Design Supply Air Humidity Ratio Difference {kgWater/kgDryAir}
  ,                                       !- Zone Humidistat Dehumidification Set Point Schedule Name
  ,                                       !- Zone Humidistat Humidification Set Point Schedule Name
  ,                                       !- Design Zone Air Distribution Effectiveness in Cooling Mode
  ,                                       !- Design Zone Air Distribution Effectiveness in Heating Mode
  ,                                       !- Design Zone Secondary Recirculation Fraction {dimensionless}
  ,                                       !- Design Minimum Zone Ventilation Efficiency {dimensionless}
  Coincident;                             !- Sizing Option

OS:ZoneHVAC:EquipmentList,
  {3261c871-9197-4dc1-b758-072658044b75}, !- Handle
  Zone HVAC Equipment List 1,             !- Name
  {2a2ca8fc-2b9d-44ba-8d5f-23a94ecd3542}, !- Thermal Zone
  ,                                       !- Load Distribution Scheme
  {014d41ed-635e-403d-8487-8723badd2199}, !- Zone Equipment 1
  1,                                      !- Zone Equipment Cooling Sequence 1
  1,                                      !- Zone Equipment Heating or No-Load Sequence 1
  {7f989dfd-8f1b-447a-abc5-9aaf4bd488b3}, !- Zone Equipment Sequential Cooling Fraction Schedule Name 1
  {2e0276b4-0e3d-4762-bab9-d6e35bdeac5a}; !- Zone Equipment Sequential Heating Fraction Schedule Name 1

OS:AdditionalProperties,
  {9c6edce8-5bcb-4a1a-ae75-7b5531dbb14d}, !- Handle
  {2a2ca8fc-2b9d-44ba-8d5f-23a94ecd3542}, !- Object Name
  ObjectType,                             !- Feature Name 1
  String,                                 !- Feature Data Type 1
  conditioned space;                      !- Feature Value 1

OS:Space,
  {1788621b-6303-4565-8243-95dcf9c33346}, !- Handle
  conditioned space 1,                    !- Name
  ,                                       !- Space Type Name
  ,                                       !- Default Construction Set Name
  ,                                       !- Default Schedule Set Name
  ,                                       !- Direction of Relative North {deg}
  ,                                       !- X Origin {m}
  ,                                       !- Y Origin {m}
  ,                                       !- Z Origin {m}
  ,                                       !- Building Story Name
  {2a2ca8fc-2b9d-44ba-8d5f-23a94ecd3542}, !- Thermal Zone Name
  ,                                       !- Part of Total Floor Area
  ,                                       !- Design Specification Outdoor Air Object Name
  ,                                       !- Building Unit Name
  692.06373070848;                        !- Volume {m3}

OS:Schedule:Ruleset,
  {15d44ef1-55a4-4413-a12e-1d8b754e767d}, !- Handle
  heating setpoint,                       !- Name
  {362950ba-1a98-428f-86fc-a17a65c04f8a}, !- Schedule Type Limits Name
  {26b4de71-a1a4-4f38-8e3a-7141b46670ce}; !- Default Day Schedule Name

OS:Schedule:Day,
  {26b4de71-a1a4-4f38-8e3a-7141b46670ce}, !- Handle
  heating setpoint default day,           !- Name
  {362950ba-1a98-428f-86fc-a17a65c04f8a}, !- Schedule Type Limits Name
  ,                                       !- Interpolate to Timestep
  24,                                     !- Hour 1
  0,                                      !- Minute 1
  0;                                      !- Value Until Time 1

OS:Schedule:Rule,
  {1de9a5b1-87f6-45d4-a97c-fd212af7b36f}, !- Handle
  heating setpoint allday rule,           !- Name
  {15d44ef1-55a4-4413-a12e-1d8b754e767d}, !- Schedule Ruleset Name
  0,                                      !- Rule Order
  {390ed0ef-30a1-4e20-b9e6-e25bcd77aaf5}, !- Day Schedule Name
  Yes,                                    !- Apply Sunday
  Yes,                                    !- Apply Monday
  Yes,                                    !- Apply Tuesday
  Yes,                                    !- Apply Wednesday
  Yes,                                    !- Apply Thursday
  Yes,                                    !- Apply Friday
  Yes,                                    !- Apply Saturday
  DateRange,                              !- Date Specification Type
  1,                                      !- Start Month
  1,                                      !- Start Day
  12,                                     !- End Month
  31;                                     !- End Day

OS:Schedule:Day,
  {390ed0ef-30a1-4e20-b9e6-e25bcd77aaf5}, !- Handle
  heating setpoint day,                   !- Name
  {362950ba-1a98-428f-86fc-a17a65c04f8a}, !- Schedule Type Limits Name
  ,                                       !- Interpolate to Timestep
  24,                                     !- Hour 1
  0,                                      !- Minute 1
  20;                                     !- Value Until Time 1

OS:Schedule:Ruleset,
  {cb704a32-ae94-452b-a0d8-6fbed15ea19a}, !- Handle
  cooling setpoint,                       !- Name
  {362950ba-1a98-428f-86fc-a17a65c04f8a}, !- Schedule Type Limits Name
  {ce90fbe4-fee1-4a1d-9525-07cd01d0480d}; !- Default Day Schedule Name

OS:Schedule:Day,
  {ce90fbe4-fee1-4a1d-9525-07cd01d0480d}, !- Handle
  cooling setpoint default day,           !- Name
  {362950ba-1a98-428f-86fc-a17a65c04f8a}, !- Schedule Type Limits Name
  ,                                       !- Interpolate to Timestep
  24,                                     !- Hour 1
  0,                                      !- Minute 1
  0;                                      !- Value Until Time 1

OS:Schedule:Rule,
  {df3d2b73-44de-4e99-9c96-3d952e1e84ec}, !- Handle
  cooling setpoint allday rule,           !- Name
  {cb704a32-ae94-452b-a0d8-6fbed15ea19a}, !- Schedule Ruleset Name
  0,                                      !- Rule Order
  {56497650-79f2-4f91-af1d-e3999ec64a93}, !- Day Schedule Name
  Yes,                                    !- Apply Sunday
  Yes,                                    !- Apply Monday
  Yes,                                    !- Apply Tuesday
  Yes,                                    !- Apply Wednesday
  Yes,                                    !- Apply Thursday
  Yes,                                    !- Apply Friday
  Yes,                                    !- Apply Saturday
  DateRange,                              !- Date Specification Type
  1,                                      !- Start Month
  1,                                      !- Start Day
  12,                                     !- End Month
  31;                                     !- End Day

OS:Schedule:Day,
  {56497650-79f2-4f91-af1d-e3999ec64a93}, !- Handle
  cooling setpoint day,                   !- Name
  {362950ba-1a98-428f-86fc-a17a65c04f8a}, !- Schedule Type Limits Name
  ,                                       !- Interpolate to Timestep
  24,                                     !- Hour 1
  0,                                      !- Minute 1
  25.5555555555556;                       !- Value Until Time 1

OS:ThermostatSetpoint:DualSetpoint,
  {3f21e5c3-7377-4437-84b4-c0a20eccae34}, !- Handle
  conditioned space temperature setpoint, !- Name
  {15d44ef1-55a4-4413-a12e-1d8b754e767d}, !- Heating Setpoint Temperature Schedule Name
  {cb704a32-ae94-452b-a0d8-6fbed15ea19a}, !- Cooling Setpoint Temperature Schedule Name
  0;                                      !- Temperature Difference Between Cutout And Setpoint {deltaC}

OS:ScheduleTypeLimits,
  {362950ba-1a98-428f-86fc-a17a65c04f8a}, !- Handle
  Temperature,                            !- Name
  ,                                       !- Lower Limit Value
  ,                                       !- Upper Limit Value
  Continuous,                             !- Numeric Type
  Temperature;                            !- Unit Type

OS:Surface,
  {b14af8b1-e5fa-497d-acb1-9c3a58a37476}, !- Handle
  Roof1,                                  !- Name
  RoofCeiling,                            !- Surface Type
  {4f997443-5ad2-4237-9164-6d88b6a47b33}, !- Construction Name
  {7d13df49-62ac-4031-8332-422e30cc9077}, !- Space Name
  Outdoors,                               !- Outside Boundary Condition
  ,                                       !- Outside Boundary Condition Object
  SunExposed,                             !- Sun Exposure
  WindExposed,                            !- Wind Exposure
  ,                                       !- View Factor to Ground
  ,                                       !- Number of Vertices
  -19.6245848849634, 50.7456691618865, 2.4384, !- X,Y,Z Vertex 1 {m}
  -19.6245848849634, 39.4794431136661, 8.0715130241102, !- X,Y,Z Vertex 2 {m}
  -7.02856123811356, 39.4794431136661, 8.0715130241102, !- X,Y,Z Vertex 3 {m}
  -7.02856123811356, 50.7456691618865, 2.4384; !- X,Y,Z Vertex 4 {m}

OS:AdditionalProperties,
  {71ca5b3b-8740-4cf5-859d-99dcf7ebf59c}, !- Handle
  {b14af8b1-e5fa-497d-acb1-9c3a58a37476}, !- Object Name
  Length,                                 !- Feature Name 1
  Double,                                 !- Feature Data Type 1
  41.325536899113608,                     !- Feature Value 1
  Width,                                  !- Feature Name 2
  Double,                                 !- Feature Data Type 2
  41.325536899113601,                     !- Feature Value 2
  Azimuth,                                !- Feature Name 3
  Integer,                                !- Feature Data Type 3
  0,                                      !- Feature Value 3
  Tilt,                                   !- Feature Name 4
  Double,                                 !- Feature Data Type 4
  0.5,                                    !- Feature Value 4
  SurfaceType,                            !- Feature Name 5
  String,                                 !- Feature Data Type 5
  Roof;                                   !- Feature Value 5

OS:ThermalZone,
  {f74cf1a8-c5c3-404c-a4d1-b9853970eeb2}, !- Handle
  attic - vented,                         !- Name
  1,                                      !- Multiplier
  ,                                       !- Ceiling Height {m}
  443.601251426534,                       !- Volume {m3}
  ,                                       !- Floor Area {m2}
  ,                                       !- Zone Inside Convection Algorithm
  ,                                       !- Zone Outside Convection Algorithm
  ,                                       !- Zone Conditioning Equipment List Name
  {2ad29cb9-50b6-42f4-b3c5-208971e27758}, !- Zone Air Inlet Port List
  {b4268031-54cd-4fbc-a875-9cae2deeb1ed}, !- Zone Air Exhaust Port List
  {8c8cafc9-c3a0-4f11-a255-1426b4bde180}, !- Zone Air Node Name
  {f271fa41-8978-44d4-a4ae-cf59445f916f}, !- Zone Return Air Port List
  ,                                       !- Primary Daylighting Control Name
  ,                                       !- Fraction of Zone Controlled by Primary Daylighting Control
  ,                                       !- Secondary Daylighting Control Name
  ,                                       !- Fraction of Zone Controlled by Secondary Daylighting Control
  ,                                       !- Illuminance Map Name
  ,                                       !- Group Rendering Name
  ,                                       !- Thermostat Name
  No;                                     !- Use Ideal Air Loads

OS:Node,
  {b4932d53-8817-421a-b5a5-b46f96059afe}, !- Handle
  Node 2,                                 !- Name
  {8c8cafc9-c3a0-4f11-a255-1426b4bde180}, !- Inlet Port
  ;                                       !- Outlet Port

OS:Connection,
  {8c8cafc9-c3a0-4f11-a255-1426b4bde180}, !- Handle
  {f74cf1a8-c5c3-404c-a4d1-b9853970eeb2}, !- Source Object
  11,                                     !- Outlet Port
  {b4932d53-8817-421a-b5a5-b46f96059afe}, !- Target Object
  2;                                      !- Inlet Port

OS:PortList,
  {2ad29cb9-50b6-42f4-b3c5-208971e27758}, !- Handle
  {f74cf1a8-c5c3-404c-a4d1-b9853970eeb2}; !- HVAC Component

OS:PortList,
  {b4268031-54cd-4fbc-a875-9cae2deeb1ed}, !- Handle
  {f74cf1a8-c5c3-404c-a4d1-b9853970eeb2}; !- HVAC Component

OS:PortList,
  {f271fa41-8978-44d4-a4ae-cf59445f916f}, !- Handle
  {f74cf1a8-c5c3-404c-a4d1-b9853970eeb2}; !- HVAC Component

OS:Sizing:Zone,
  {5f368cff-dbde-4995-93fe-a37b24829949}, !- Handle
  {f74cf1a8-c5c3-404c-a4d1-b9853970eeb2}, !- Zone or ZoneList Name
  SupplyAirTemperature,                   !- Zone Cooling Design Supply Air Temperature Input Method
  14,                                     !- Zone Cooling Design Supply Air Temperature {C}
  11.11,                                  !- Zone Cooling Design Supply Air Temperature Difference {deltaC}
  SupplyAirTemperature,                   !- Zone Heating Design Supply Air Temperature Input Method
  40,                                     !- Zone Heating Design Supply Air Temperature {C}
  11.11,                                  !- Zone Heating Design Supply Air Temperature Difference {deltaC}
  0.0085,                                 !- Zone Cooling Design Supply Air Humidity Ratio {kg-H2O/kg-air}
  0.008,                                  !- Zone Heating Design Supply Air Humidity Ratio {kg-H2O/kg-air}
  ,                                       !- Zone Heating Sizing Factor
  ,                                       !- Zone Cooling Sizing Factor
  DesignDay,                              !- Cooling Design Air Flow Method
  ,                                       !- Cooling Design Air Flow Rate {m3/s}
  ,                                       !- Cooling Minimum Air Flow per Zone Floor Area {m3/s-m2}
  ,                                       !- Cooling Minimum Air Flow {m3/s}
  ,                                       !- Cooling Minimum Air Flow Fraction
  DesignDay,                              !- Heating Design Air Flow Method
  ,                                       !- Heating Design Air Flow Rate {m3/s}
  ,                                       !- Heating Maximum Air Flow per Zone Floor Area {m3/s-m2}
  ,                                       !- Heating Maximum Air Flow {m3/s}
  ,                                       !- Heating Maximum Air Flow Fraction
  No,                                     !- Account for Dedicated Outdoor Air System
  NeutralSupplyAir,                       !- Dedicated Outdoor Air System Control Strategy
  autosize,                               !- Dedicated Outdoor Air Low Setpoint Temperature for Design {C}
  autosize,                               !- Dedicated Outdoor Air High Setpoint Temperature for Design {C}
  Sensible Load Only No Latent Load,      !- Zone Load Sizing Method
  HumidityRatioDifference,                !- Zone Latent Cooling Design Supply Air Humidity Ratio Input Method
  ,                                       !- Zone Dehumidification Design Supply Air Humidity Ratio {kgWater/kgDryAir}
  0.005,                                  !- Zone Cooling Design Supply Air Humidity Ratio Difference {kgWater/kgDryAir}
  HumidityRatioDifference,                !- Zone Latent Heating Design Supply Air Humidity Ratio Input Method
  ,                                       !- Zone Humidification Design Supply Air Humidity Ratio {kgWater/kgDryAir}
  0.005,                                  !- Zone Humidification Design Supply Air Humidity Ratio Difference {kgWater/kgDryAir}
  ,                                       !- Zone Humidistat Dehumidification Set Point Schedule Name
  ,                                       !- Zone Humidistat Humidification Set Point Schedule Name
  ,                                       !- Design Zone Air Distribution Effectiveness in Cooling Mode
  ,                                       !- Design Zone Air Distribution Effectiveness in Heating Mode
  ,                                       !- Design Zone Secondary Recirculation Fraction {dimensionless}
  ,                                       !- Design Minimum Zone Ventilation Efficiency {dimensionless}
  Coincident;                             !- Sizing Option

OS:ZoneHVAC:EquipmentList,
  {ddcef4f7-d389-46e5-b2c1-5340c4f5f272}, !- Handle
  Zone HVAC Equipment List 2,             !- Name
  {f74cf1a8-c5c3-404c-a4d1-b9853970eeb2}; !- Thermal Zone

OS:AdditionalProperties,
  {a1c1c2ee-3d28-44b8-95cc-0780579882f6}, !- Handle
  {f74cf1a8-c5c3-404c-a4d1-b9853970eeb2}, !- Object Name
  ObjectType,                             !- Feature Name 1
  String,                                 !- Feature Data Type 1
  attic - vented;                         !- Feature Value 1

OS:Space,
  {7d13df49-62ac-4031-8332-422e30cc9077}, !- Handle
  attic - vented 1,                       !- Name
  ,                                       !- Space Type Name
  ,                                       !- Default Construction Set Name
  ,                                       !- Default Schedule Set Name
  ,                                       !- Direction of Relative North {deg}
  ,                                       !- X Origin {m}
  ,                                       !- Y Origin {m}
  ,                                       !- Z Origin {m}
  ,                                       !- Building Story Name
  {f74cf1a8-c5c3-404c-a4d1-b9853970eeb2}, !- Thermal Zone Name
  ,                                       !- Part of Total Floor Area
  ,                                       !- Design Specification Outdoor Air Object Name
  ,                                       !- Building Unit Name
  443.601251426534;                       !- Volume {m3}

OS:Material,
  {5d4e0ecc-779b-46eb-a061-59dfd312525d}, !- Handle
  asphalt or fiberglass shingles,         !- Name
  Rough,                                  !- Roughness
  0.00635,                                !- Thickness {m}
  0.162714,                               !- Conductivity {W/m-K}
  1121.4,                                 !- Density {kg/m3}
  1465.45,                                !- Specific Heat {J/kg-K}
  0.9,                                    !- Thermal Absorptance
  0.85,                                   !- Solar Absorptance