
OS:Version,
  {2dd96068-a140-43dd-a7e4-49e29139d496}, !- Handle
  3.10.0;                                 !- Version Identifier

OS:SimulationControl,
  {63ce5353-8e46-4d04-ade8-e3efa4ab7d4f}, !- Handle
  ,                                       !- Do Zone Sizing Calculation
  ,                                       !- Do System Sizing Calculation
  ,                                       !- Do Plant Sizing Calculation
  No;                                     !- Run Simulation for Sizing Periods

OS:Timestep,
  {34cec187-747a-405f-b6f2-ff411860fbbe}, !- Handle
  1;                                      !- Number of Timesteps per Hour

OS:ShadowCalculation,
  {4ec3b12d-84fe-4f6a-94be-65db0a3dda08}, !- Handle
  PolygonClipping,                        !- Shading Calculation Method
  ,                                       !- Shading Calculation Update Frequency Method
  20,                                     !- Shading Calculation Update Frequency
  200,                                    !- Maximum Figures in Shadow Overlap Calculations
  ,                                       !- Polygon Clipping Algorithm
  512,                                    !- Pixel Counting Resolution
  ,                                       !- Sky Diffuse Modeling Algorithm
  No,                                     !- Output External Shading Calculation Results
  No,                                     !- Disable Self-Shading Within Shading Zone Groups
  No;                                     !- Disable Self-Shading From Shading Zone Groups to Other Zones

OS:SurfaceConvectionAlgorithm:Outside,
  {2009da9f-54d4-4334-a734-71ca8a76789b}, !- Handle
  DOE-2;                                  !- Algorithm

OS:SurfaceConvectionAlgorithm:Inside,
  {53407141-0fab-4127-a5b7-4389a2162a47}, !- Handle
  TARP;                                   !- Algorithm

OS:ZoneCapacitanceMultiplier:ResearchSpecial,
  {1ff489a7-d0ee-4335-9bdf-dbb2a17e7bbc}, !- Handle
  7,                                      !- Temperature Capacity Multiplier
  15,                                     !- Humidity Capacity Multiplier
  ;                                       !- Carbon Dioxide Capacity Multiplier

OS:ConvergenceLimits,
  {fa4aafe0-87a5-4212-87e3-0ed1d53fe6a2}, !- Handle
  0;                                      !- Minimum System Timestep {minutes}

OS:RunPeriod,
  {23681f13-b4b7-4aef-b898-ab98d1412957}, !- Handle
  Run Period 1,                           !- Name
  1,                                      !- Begin Month
  1,                                      !- Begin Day of Month
  12,                                     !- End Month
  31,                                     !- End Day of Month
  ,                                       !- Use Weather File Holidays and Special Days
  ,                                       !- Use Weather File Daylight Saving Period
  ,                                       !- Apply Weekend Holiday Rule
  ,                                       !- Use Weather File Rain Indicators
  ,                                       !- Use Weather File Snow Indicators
  ;                                       !- Number of Times Runperiod to be Repeated

OS:PerformancePrecisionTradeoffs,
  {e41283b0-e29e-4b51-9119-962da7212110}, !- Handle
  ,                                       !- Use Coil Direct Solutions
  CarrollMRT;                             !- Zone Radiant Exchange Algorithm

OS:WeatherFile,
  {23c7ac5d-ecdb-4914-9e65-7078aae86f9d}, !- Handle
  Buffalo Niagara Intl Ap,                !- City
  NY,                                     !- State Province Region
  USA,                                    !- Country
  TMY3,                                   !- Data Source
  725280,                                 !- WMO Number
  42.93,                                  !- Latitude {deg}
  -78.73,                                 !- Longitude {deg}
  -5,                                     !- Time Zone {hr}
  215,                                    !- Elevation {m}
  /Users/nmoore/github/urbanopt-example-geojson-project/example_project/weather/USA_NY_Buffalo-Greater.Buffalo.Intl.AP.725280_TMY3.epw, !- Url
  6B50E0FF,                               !- Checksum
  ,                                       !- Start Date Actual Year
  Sunday;                                 !- Start Day of Week

OS:YearDescription,
  {9530b847-2d90-496b-9235-681e381d7e4a}, !- Handle
  2007,                                   !- Calendar Year
  ,                                       !- Day of Week for Start Day
  ;                                       !- Is Leap Year

OS:Site,
  {3ab390e9-16bf-40aa-965e-68b2150d277e}, !- Handle
  Buffalo Niagara Intl Ap_NY,             !- Name
  42.93,                                  !- Latitude {deg}
  -78.73,                                 !- Longitude {deg}
  -5,                                     !- Time Zone {hr}
  215,                                    !- Elevation {m}
  Suburbs,                                !- Terrain
  Yes;                                    !- Keep Site Location Information

OS:RunPeriodControl:DaylightSavingTime,
  {921fb55b-c7b9-4184-8f97-685cc44dece0}, !- Handle
  Mar 12,                                 !- Start Date
  Nov 5;                                  !- End Date

OS:Site:GroundTemperature:Shallow,
  {6b65429d-e408-48d4-879e-204f5ef00025}, !- Handle
  4.30207395723828,                       !- January Surface Ground Temperature {C}
  2.29327249652502,                       !- February Surface Ground Temperature {C}
  2.13240047156047,                       !- March Surface Ground Temperature {C}
  3.08567940719286,                       !- April Surface Ground Temperature {C}
  6.91256312497526,                       !- May Surface Ground Temperature {C}
  10.7216195949507,                       !- June Surface Ground Temperature {C}
  14.0238679822574,                       !- July Surface Ground Temperature {C}
  16.1157611184724,                       !- August Surface Ground Temperature {C}
  16.2934789303462,                       !- September Surface Ground Temperature {C}
  14.5920754632847,                       !- October Surface Ground Temperature {C}
  11.374036348653,                        !- November Surface Ground Temperature {C}
  7.68182621661674;                       !- December Surface Ground Temperature {C}

OS:ThermalZone,
  {41236b94-e359-4e67-9be0-d0dcb3443fcd}, !- Handle
  conditioned space,                      !- Name
  1,                                      !- Multiplier
  ,                                       !- Ceiling Height {m}
  692.06373070848,                        !- Volume {m3}
  ,                                       !- Floor Area {m2}
  ,                                       !- Zone Inside Convection Algorithm
  ,                                       !- Zone Outside Convection Algorithm
  ,                                       !- Zone Conditioning Equipment List Name
  {7d4e9249-f08e-49b8-bab9-ca86a870c99e}, !- Zone Air Inlet Port List
  {b563e8ca-86db-4ca5-b345-a94577bf3998}, !- Zone Air Exhaust Port List
  {026ad5c0-413b-4618-98a4-c3cba343a4ec}, !- Zone Air Node Name
  {cb2687da-2852-40c4-a14d-f9152dd26418}, !- Zone Return Air Port List
  ,                                       !- Primary Daylighting Control Name
  ,                                       !- Fraction of Zone Controlled by Primary Daylighting Control
  ,                                       !- Secondary Daylighting Control Name
  ,                                       !- Fraction of Zone Controlled by Secondary Daylighting Control
  ,                                       !- Illuminance Map Name
  ,                                       !- Group Rendering Name
  {8b59c0d6-539e-426b-9b7b-b292a5f79d94}, !- Thermostat Name
  No;                                     !- Use Ideal Air Loads

OS:Node,
  {c6d5e3fd-ea1d-4a9e-91c6-91d1c6187b97}, !- Handle
  Node 1,                                 !- Name
  {026ad5c0-413b-4618-98a4-c3cba343a4ec}, !- Inlet Port
  ;                                       !- Outlet Port

OS:Connection,
  {026ad5c0-413b-4618-98a4-c3cba343a4ec}, !- Handle
  {41236b94-e359-4e67-9be0-d0dcb3443fcd}, !- Source Object
  11,                                     !- Outlet Port
  {c6d5e3fd-ea1d-4a9e-91c6-91d1c6187b97}, !- Target Object
  2;                                      !- Inlet Port

OS:PortList,
  {7d4e9249-f08e-49b8-bab9-ca86a870c99e}, !- Handle
  {41236b94-e359-4e67-9be0-d0dcb3443fcd}, !- HVAC Component
  {d753c8dc-cb08-4239-a889-60db85f8dccc}; !- Port 1

OS:PortList,
  {b563e8ca-86db-4ca5-b345-a94577bf3998}, !- Handle
  {41236b94-e359-4e67-9be0-d0dcb3443fcd}; !- HVAC Component

OS:PortList,
  {cb2687da-2852-40c4-a14d-f9152dd26418}, !- Handle
  {41236b94-e359-4e67-9be0-d0dcb3443fcd}, !- HVAC Component
  {65807c94-9f1b-45c4-adca-2790d067f532}; !- Port 1

OS:Sizing:Zone,
  {81c8aef0-6456-40d3-9b64-4238522a4a81}, !- Handle
  {41236b94-e359-4e67-9be0-d0dcb3443fcd}, !- Zone or ZoneList Name
  SupplyAirTemperature,                   !- Zone Cooling Design Supply Air Temperature Input Method
  14,                                     !- Zone Cooling Design Supply Air Temperature {C}
  11.11,                                  !- Zone Cooling Design Supply Air Temperature Difference {deltaC}
  SupplyAirTemperature,                   !- Zone Heating Design Supply Air Temperature Input Method
  40,                                     !- Zone Heating Design Supply Air Temperature {C}
  11.11,                                  !- Zone Heating Design Supply Air Temperature Difference {deltaC}
  0.0085,                                 !- Zone Cooling Design Supply Air Humidity Ratio {kg-H2O/kg-air}
  0.008,                                  !- Zone Heating Design Supply Air Humidity Ratio {kg-H2O/kg-air}
  ,                                       !- Zone Heating Sizing Factor
  ,                                       !- Zone Cooling Sizing Factor
  DesignDay,                              !- Cooling Design Air Flow Method
  ,                                       !- Cooling Design Air Flow Rate {m3/s}
  ,                                       !- Cooling Minimum Air Flow per Zone Floor Area {m3/s-m2}
  ,                                       !- Cooling Minimum Air Flow {m3/s}
  ,                                       !- Cooling Minimum Air Flow Fraction
  DesignDay,                              !- Heating Design Air Flow Method
  ,                                       !- Heating Design Air Flow Rate {m3/s}
  ,                                       !- Heating Maximum Air Flow per Zone Floor Area {m3/s-m2}
  ,                                       !- Heating Maximum Air Flow {m3/s}
  ,                                       !- Heating Maximum Air Flow Fraction
  No,                                     !- Account for Dedicated Outdoor Air System
  NeutralSupplyAir,                       !- Dedicated Outdoor Air System Control Strategy
  autosize,                               !- Dedicated Outdoor Air Low Setpoint Temperature for Design {C}
  autosize,                               !- Dedicated Outdoor Air High Setpoint Temperature for Design {C}
  Sensible Load Only No Latent Load,      !- Zone Load Sizing Method
  HumidityRatioDifference,                !- Zone Latent Cooling Design Supply Air Humidity Ratio Input Method
  ,                                       !- Zone Dehumidification Design Supply Air Humidity Ratio {kgWater/kgDryAir}
  0.005,                                  !- Zone Cooling Design Supply Air Humidity Ratio Difference {kgWater/kgDryAir}
  HumidityRatioDifference,                !- Zone Latent Heating Design Supply Air Humidity Ratio Input Method
  ,                                       !- Zone Humidification Design Supply Air Humidity Ratio {kgWater/kgDryAir}
  0.005,                                  !- Zone Humidification Design Supply Air Humidity Ratio Difference {kgWater/kgDryAir}
  ,                                       !- Zone Humidistat Dehumidification Set Point Schedule Name
  ,                                       !- Zone Humidistat Humidification Set Point Schedule Name
  ,                                       !- Design Zone Air Distribution Effectiveness in Cooling Mode
  ,                                       !- Design Zone Air Distribution Effectiveness in Heating Mode
  ,                                       !- Design Zone Secondary Recirculation Fraction {dimensionless}
  ,                                       !- Design Minimum Zone Ventilation Efficiency {dimensionless}
  Coincident;                             !- Sizing Option

OS:ZoneHVAC:EquipmentList,
  {ea453c80-c4ca-4282-9d92-c5186214d7c9}, !- Handle
  Zone HVAC Equipment List 1,             !- Name
  {41236b94-e359-4e67-9be0-d0dcb3443fcd}, !- Thermal Zone
  ,                                       !- Load Distribution Scheme
  {8e338608-5d9d-4aab-a120-c3a02a1436a4}, !- Zone Equipment 1
  1,                                      !- Zone Equipment Cooling Sequence 1
  1,                                      !- Zone Equipment Heating or No-Load Sequence 1
  {9cef0dd3-4135-41a3-9a0c-a0e308333f12}, !- Zone Equipment Sequential Cooling Fraction Schedule Name 1
  {6a544c24-9694-40e0-8f63-e739130994ad}, !- Zone Equipment Sequential Heating Fraction Schedule Name 1
  {74414f35-aac0-41e0-a05f-625009f96471}, !- Zone Equipment 2
  2,                                      !- Zone Equipment Cooling Sequence 2
  2,                                      !- Zone Equipment Heating or No-Load Sequence 2
  {6d6ad24b-7737-418a-b653-900d25532fa7}, !- Zone Equipment Sequential Cooling Fraction Schedule Name 2
  {c3856ecc-6494-4ae8-9052-e3fa3f19ea69}; !- Zone Equipment Sequential Heating Fraction Schedule Name 2

OS:AdditionalProperties,
  {dcc2f001-7436-46d7-8737-d2cefb792eb2}, !- Handle
  {41236b94-e359-4e67-9be0-d0dcb3443fcd}, !- Object Name
  ObjectType,                             !- Feature Name 1
  String,                                 !- Feature Data Type 1
  conditioned space;                      !- Feature Value 1

OS:Space,
  {2607ea3b-83f8-4be2-bdab-c714b1177c90}, !- Handle
  conditioned space 1,                    !- Name
  ,                                       !- Space Type Name
  ,                                       !- Default Construction Set Name
  ,                                       !- Default Schedule Set Name
  ,                                       !- Direction of Relative North {deg}
  ,                                       !- X Origin {m}
  ,                                       !- Y Origin {m}
  ,                                       !- Z Origin {m}
  ,                                       !- Building Story Name
  {41236b94-e359-4e67-9be0-d0dcb3443fcd}, !- Thermal Zone Name
  ,                                       !- Part of Total Floor Area
  ,                                       !- Design Specification Outdoor Air Object Name
  ,                                       !- Building Unit Name
  692.06373070848;                        !- Volume {m3}

OS:Schedule:Ruleset,
  {afa44ef2-b08a-4dcf-b953-1bf6f02d7def}, !- Handle
  heating setpoint,                       !- Name
  {5a75ffe0-80dc-4114-b390-2d9d3fcfc272}, !- Schedule Type Limits Name
  {bdd303de-4611-4474-b928-9c7c4706be07}; !- Default Day Schedule Name

OS:Schedule:Day,
  {bdd303de-4611-4474-b928-9c7c4706be07}, !- Handle
  heating setpoint default day,           !- Name
  {5a75ffe0-80dc-4114-b390-2d9d3fcfc272}, !- Schedule Type Limits Name
  ,                                       !- Interpolate to Timestep
  24,                                     !- Hour 1
  0,                                      !- Minute 1
  0;                                      !- Value Until Time 1

OS:Schedule:Rule,
  {645f77cd-1764-4a28-a834-e4ccebe6911b}, !- Handle
  heating setpoint allday rule,           !- Name
  {afa44ef2-b08a-4dcf-b953-1bf6f02d7def}, !- Schedule Ruleset Name
  0,                                      !- Rule Order
  {f77835cf-b9c2-427f-99d7-a3c2dfa6cfb1}, !- Day Schedule Name
  Yes,                                    !- Apply Sunday
  Yes,                                    !- Apply Monday
  Yes,                                    !- Apply Tuesday
  Yes,                                    !- Apply Wednesday
  Yes,                                    !- Apply Thursday
  Yes,                                    !- Apply Friday
  Yes,                                    !- Apply Saturday
  DateRange,                              !- Date Specification Type
  1,                                      !- Start Month
  1,                                      !- Start Day
  12,                                     !- End Month
  31;                                     !- End Day

OS:Schedule:Day,
  {f77835cf-b9c2-427f-99d7-a3c2dfa6cfb1}, !- Handle
  heating setpoint day,                   !- Name
  {5a75ffe0-80dc-4114-b390-2d9d3fcfc272}, !- Schedule Type Limits Name
  ,                                       !- Interpolate to Timestep
  24,                                     !- Hour 1
  0,                                      !- Minute 1
  20;                                     !- Value Until Time 1

OS:Schedule:Ruleset,
  {75479d09-40b3-496a-9856-57b120c72136}, !- Handle
  cooling setpoint,                       !- Name
  {5a75ffe0-80dc-4114-b390-2d9d3fcfc272}, !- Schedule Type Limits Name
  {1b3449a5-b0f7-4521-9e8c-9acdd3516259}; !- Default Day Schedule Name

OS:Schedule:Day,
  {1b3449a5-b0f7-4521-9e8c-9acdd3516259}, !- Handle
  cooling setpoint default day,           !- Name
  {5a75ffe0-80dc-4114-b390-2d9d3fcfc272}, !- Schedule Type Limits Name
  ,                                       !- Interpolate to Timestep
  24,                                     !- Hour 1
  0,                                      !- Minute 1
  0;                                      !- Value Until Time 1

OS:Schedule:Rule,
  {38f973d8-ecee-404a-8480-d147ea6a546d}, !- Handle
  cooling setpoint allday rule,           !- Name
  {75479d09-40b3-496a-9856-57b120c72136}, !- Schedule Ruleset Name
  0,                                      !- Rule Order
  {8829d490-7f08-4b33-81c8-7a35032f22ea}, !- Day Schedule Name
  Yes,                                    !- Apply Sunday
  Yes,                                    !- Apply Monday
  Yes,                                    !- Apply Tuesday
  Yes,                                    !- Apply Wednesday
  Yes,                                    !- Apply Thursday
  Yes,                                    !- Apply Friday
  Yes,                                    !- Apply Saturday
  DateRange,                              !- Date Specification Type
  1,                                      !- Start Month
  1,                                      !- Start Day
  12,                                     !- End Month
  31;                                     !- End Day

OS:Schedule:Day,
  {8829d490-7f08-4b33-81c8-7a35032f22ea}, !- Handle
  cooling setpoint day,                   !- Name
  {5a75ffe0-80dc-4114-b390-2d9d3fcfc272}, !- Schedule Type Limits Name
  ,                                       !- Interpolate to Timestep
  24,                                     !- Hour 1
  0,                                      !- Minute 1
  25.5555555555556;                       !- Value Until Time 1

OS:ThermostatSetpoint:DualSetpoint,
  {8b59c0d6-539e-426b-9b7b-b292a5f79d94}, !- Handle
  conditioned space temperature setpoint, !- Name
  {afa44ef2-b08a-4dcf-b953-1bf6f02d7def}, !- Heating Setpoint Temperature Schedule Name
  {75479d09-40b3-496a-9856-57b120c72136}, !- Cooling Setpoint Temperature Schedule Name
  0;                                      !- Temperature Difference Between Cutout And Setpoint {deltaC}

OS:ScheduleTypeLimits,
  {5a75ffe0-80dc-4114-b390-2d9d3fcfc272}, !- Handle
  Temperature,                            !- Name
  ,                                       !- Lower Limit Value
  ,                                       !- Upper Limit Value
  Continuous,                             !- Numeric Type
  Temperature;                            !- Unit Type

OS:Surface,
  {3864f7e9-b406-49a7-97c5-c4d0102ecd6b}, !- Handle
  Roof1,                                  !- Name
  RoofCeiling,                            !- Surface Type
  {1ddebdea-e3ef-4470-b64b-180b924e2dc9}, !- Construction Name
  {7a037ad3-5e83-45f9-96a0-bb894fbad257}, !- Space Name
  Outdoors,                               !- Outside Boundary Condition
  ,                                       !- Outside Boundary Condition Object
  SunExposed,                             !- Sun Exposure
  WindExposed,                            !- Wind Exposure
  ,                                       !- View Factor to Ground
  ,                                       !- Number of Vertices
  -26.9347048849634, 58.0557891618865, 2.4384, !- X,Y,Z Vertex 1 {m}
  -26.9347048849634, 46.7895631136661, 8.0715130241102, !- X,Y,Z Vertex 2 {m}
  -14.3386812381136, 46.7895631136661, 8.0715130241102, !- X,Y,Z Vertex 3 {m}
  -14.3386812381136, 58.0557891618865, 2.4384; !- X,Y,Z Vertex 4 {m}

OS:AdditionalProperties,
  {e387c25a-d536-4844-b4ed-f17aae7d88d6}, !- Handle
  {3864f7e9-b406-49a7-97c5-c4d0102ecd6b}, !- Object Name
  Length,                                 !- Feature Name 1
  Double,                                 !- Feature Data Type 1
  41.325536899113608,                     !- Feature Value 1
  Width,                                  !- Feature Name 2
  Double,                                 !- Feature Data Type 2
  41.325536899113601,                     !- Feature Value 2
  Azimuth,                                !- Feature Name 3
  Integer,                                !- Feature Data Type 3
  0,                                      !- Feature Value 3
  Tilt,                                   !- Feature Name 4
  Double,                                 !- Feature Data Type 4
  0.5,                                    !- Feature Value 4
  SurfaceType,                            !- Feature Name 5
  String,                                 !- Feature Data Type 5
  Roof;                                   !- Feature Value 5

OS:ThermalZone,
  {edffd11b-1fdb-4eb3-a977-82c6089a1902}, !- Handle
  attic - vented,                         !- Name
  1,                                      !- Multiplier
  ,                                       !- Ceiling Height {m}
  356.390921899745,                       !- Volume {m3}
  ,                                       !- Floor Area {m2}
  ,                                       !- Zone Inside Convection Algorithm
  ,                                       !- Zone Outside Convection Algorithm
  ,                                       !- Zone Conditioning Equipment List Name
  {808f5e99-c1cc-4c2b-a016-0d88db681b39}, !- Zone Air Inlet Port List
  {f5e187f9-3184-4117-ac32-645d23dcf817}, !- Zone Air Exhaust Port List
  {810f6ac3-8ba7-4e1b-b03c-7eb1bcb6f556}, !- Zone Air Node Name
  {4d29aef1-a2d3-4586-ba10-bd361d4d5103}, !- Zone Return Air Port List
  ,                                       !- Primary Daylighting Control Name
  ,                                       !- Fraction of Zone Controlled by Primary Daylighting Control
  ,                                       !- Secondary Daylighting Control Name
  ,                                       !- Fraction of Zone Controlled by Secondary Daylighting Control
  ,                                       !- Illuminance Map Name
  ,                                       !- Group Rendering Name
  ,                                       !- Thermostat Name
  No;                                     !- Use Ideal Air Loads

OS:Node,
  {0e3dd028-e561-4203-82f0-4e99d8604637}, !- Handle
  Node 2,                                 !- Name
  {810f6ac3-8ba7-4e1b-b03c-7eb1bcb6f556}, !- Inlet Port
  ;                                       !- Outlet Port

OS:Connection,
  {810f6ac3-8ba7-4e1b-b03c-7eb1bcb6f556}, !- Handle
  {edffd11b-1fdb-4eb3-a977-82c6089a1902}, !- Source Object
  11,                                     !- Outlet Port
  {0e3dd028-e561-4203-82f0-4e99d8604637}, !- Target Object
  2;                                      !- Inlet Port

OS:PortList,
  {808f5e99-c1cc-4c2b-a016-0d88db681b39}, !- Handle
  {edffd11b-1fdb-4eb3-a977-82c6089a1902}; !- HVAC Component

OS:PortList,
  {f5e187f9-3184-4117-ac32-645d23dcf817}, !- Handle
  {edffd11b-1fdb-4eb3-a977-82c6089a1902}; !- HVAC Component

OS:PortList,
  {4d29aef1-a2d3-4586-ba10-bd361d4d5103}, !- Handle
  {edffd11b-1fdb-4eb3-a977-82c6089a1902}; !- HVAC Component

OS:Sizing:Zone,
  {f0e565b6-bda4-4f5b-9f1f-9db0b7da7627}, !- Handle
  {edffd11b-1fdb-4eb3-a977-82c6089a1902}, !- Zone or ZoneList Name
  SupplyAirTemperature,                   !- Zone Cooling Design Supply Air Temperature Input Method
  14,                                     !- Zone Cooling Design Supply Air Temperature {C}
  11.11,                                  !- Zone Cooling Design Supply Air Temperature Difference {deltaC}
  SupplyAirTemperature,                   !- Zone Heating Design Supply Air Temperature Input Method
  40,                                     !- Zone Heating Design Supply Air Temperature {C}
  11.11,                                  !- Zone Heating Design Supply Air Temperature Difference {deltaC}
  0.0085,                                 !- Zone Cooling Design Supply Air Humidity Ratio {kg-H2O/kg-air}
  0.008,                                  !- Zone Heating Design Supply Air Humidity Ratio {kg-H2O/kg-air}
  ,                                       !- Zone Heating Sizing Factor
  ,                                       !- Zone Cooling Sizing Factor
  DesignDay,                              !- Cooling Design Air Flow Method
  ,                                       !- Cooling Design Air Flow Rate {m3/s}
  ,                                       !- Cooling Minimum Air Flow per Zone Floor Area {m3/s-m2}
  ,                                       !- Cooling Minimum Air Flow {m3/s}
  ,                                       !- Cooling Minimum Air Flow Fraction
  DesignDay,                              !- Heating Design Air Flow Method
  ,                                       !- Heating Design Air Flow Rate {m3/s}
  ,                                       !- Heating Maximum Air Flow per Zone Floor Area {m3/s-m2}
  ,                                       !- Heating Maximum Air Flow {m3/s}
  ,                                       !- Heating Maximum Air Flow Fraction
  No,                                     !- Account for Dedicated Outdoor Air System
  NeutralSupplyAir,                       !- Dedicated Outdoor Air System Control Strategy
  autosize,                               !- Dedicated Outdoor Air Low Setpoint Temperature for Design {C}
  autosize,                               !- Dedicated Outdoor Air High Setpoint Temperature for Design {C}
  Sensible Load Only No Latent Load,      !- Zone Load Sizing Method
  HumidityRatioDifference,                !- Zone Latent Cooling Design Supply Air Humidity Ratio Input Method
  ,                                       !- Zone Dehumidification Design Supply Air Humidity Ratio {kgWater/kgDryAir}
  0.005,                                  !- Zone Cooling Design Supply Air Humidity Ratio Difference {kgWater/kgDryAir}
  HumidityRatioDifference,                !- Zone Latent Heating Design Supply Air Humidity Ratio Input Method
  ,                                       !- Zone Humidification Design Supply Air Humidity Ratio {kgWater/kgDryAir}
  0.005,                                  !- Zone Humidification Design Supply Air Humidity Ratio Difference {kgWater/kgDryAir}
  ,                                       !- Zone Humidistat Dehumidification Set Point Schedule Name
  ,                                       !- Zone Humidistat Humidification Set Point Schedule Name
  ,                                       !- Design Zone Air Distribution Effectiveness in Cooling Mode
  ,                                       !- Design Zone Air Distribution Effectiveness in Heating Mode
  ,                                       !- Design Zone Secondary Recirculation Fraction {dimensionless}
  ,                                       !- Design Minimum Zone Ventilation Efficiency {dimensionless}
  Coincident;                             !- Sizing Option

OS:ZoneHVAC:EquipmentList,
  {2ed841c7-09db-41e3-8953-9d02a6da43f4}, !- Handle
  Zone HVAC Equipment List 2,             !- Name
  {edffd11b-1fdb-4eb3-a977-82c6089a1902}; !- Thermal Zone

OS:AdditionalProperties,
  {afb95fed-12ad-4b07-97ae-3865ba2daeea}, !- Handle
  {edffd11b-1fdb-4eb3-a977-82c6089a1902}, !- Object Name
  ObjectType,                             !- Feature Name 1
  String,                                 !- Feature Data Type 1
  attic - vented;                         !- Feature Value 1

OS:Space,
  {7a037ad3-5e83-45f9-96a0-bb894fbad257}, !- Handle
  attic - vented 1,                       !- Name
  ,                                       !- Space Type Name
  ,                                       !- Default Construction Set Name
  ,                                       !- Default Schedule Set Name
  ,                                       !- Direction of Relative North {deg}
  ,                                       !- X Origin {m}
  ,                                       !- Y Origin {m}
  ,                                       !- Z Origin {m}
  ,                                       !- Building Story Name
  {edffd11b-1fdb-4eb3-a977-82c6089a1902}, !- Thermal Zone Name
  ,                                       !- Part of Total Floor Area
  ,                                       !- Design Specification Outdoor Air Object Name
  ,                                       !- Building Unit Name
  356.390921899745;                       !- Volume {m3}

OS:Material,
  {e4807d64-d629-4b71-aae6-3747729864ac}, !- Handle
  asphalt or fiberglass shingles,         !- Name