
OS:Version,
  {da5c1cd4-df1c-4297-ab50-3980e67567b2}, !- Handle
  3.9.0;                                  !- Version Identifier

OS:SimulationControl,
  {f196f3e2-3f56-45fe-a2b6-6b613e3d3655}, !- Handle
  ,                                       !- Do Zone Sizing Calculation
  ,                                       !- Do System Sizing Calculation
  ,                                       !- Do Plant Sizing Calculation
  No;                                     !- Run Simulation for Sizing Periods

OS:Timestep,
  {f99b7633-86cc-4201-8d66-72ccccbb1ac2}, !- Handle
  1;                                      !- Number of Timesteps per Hour

OS:ShadowCalculation,
  {f0cf7a51-80e1-4d3a-8ea7-1d6fec8e27df}, !- Handle
  PolygonClipping,                        !- Shading Calculation Method
  ,                                       !- Shading Calculation Update Frequency Method
  20,                                     !- Shading Calculation Update Frequency
  200,                                    !- Maximum Figures in Shadow Overlap Calculations
  ,                                       !- Polygon Clipping Algorithm
  512,                                    !- Pixel Counting Resolution
  ,                                       !- Sky Diffuse Modeling Algorithm
  No,                                     !- Output External Shading Calculation Results
  No,                                     !- Disable Self-Shading Within Shading Zone Groups
  No;                                     !- Disable Self-Shading From Shading Zone Groups to Other Zones

OS:SurfaceConvectionAlgorithm:Outside,
  {bc9445e3-c8cb-4617-b45a-0665ed50bf2f}, !- Handle
  DOE-2;                                  !- Algorithm

OS:SurfaceConvectionAlgorithm:Inside,
  {f2244c4c-378c-49f4-9f95-9e993d504c97}, !- Handle
  TARP;                                   !- Algorithm

OS:ZoneCapacitanceMultiplier:ResearchSpecial,
  {9545a036-c2e3-4bc6-9294-d2a8214614ab}, !- Handle
  7,                                      !- Temperature Capacity Multiplier
  15,                                     !- Humidity Capacity Multiplier
  ;                                       !- Carbon Dioxide Capacity Multiplier

OS:ConvergenceLimits,
  {03dea42d-98b4-47f7-98d3-bd1b9a549f1c}, !- Handle
  0;                                      !- Minimum System Timestep {minutes}

OS:RunPeriod,
  {87ee4ca7-287f-4e88-a3b3-7dbf5c886389}, !- Handle
  Run Period 1,                           !- Name
  1,                                      !- Begin Month
  1,                                      !- Begin Day of Month
  12,                                     !- End Month
  31,                                     !- End Day of Month
  ,                                       !- Use Weather File Holidays and Special Days
  ,                                       !- Use Weather File Daylight Saving Period
  ,                                       !- Apply Weekend Holiday Rule
  ,                                       !- Use Weather File Rain Indicators
  ,                                       !- Use Weather File Snow Indicators
  ;                                       !- Number of Times Runperiod to be Repeated

OS:PerformancePrecisionTradeoffs,
  {5a7da60b-8e66-4f4e-858a-5ae8f2d5f036}, !- Handle
  ,                                       !- Use Coil Direct Solutions
  CarrollMRT;                             !- Zone Radiant Exchange Algorithm

OS:WeatherFile,
  {458bc5b8-c9f7-4fc8-8ad1-c9dfbb4f712b}, !- Handle
  Buffalo Niagara Intl Ap,                !- City
  NY,                                     !- State Province Region
  USA,                                    !- Country
  TMY3,                                   !- Data Source
  725280,                                 !- WMO Number
  42.93,                                  !- Latitude {deg}
  -78.73,                                 !- Longitude {deg}
  -5,                                     !- Time Zone {hr}
  215,                                    !- Elevation {m}
  /Users/nmoore/github/urbanopt-example-geojson-project/example_project/weather/USA_NY_Buffalo-Greater.Buffalo.Intl.AP.725280_TMY3.epw, !- Url
  6B50E0FF,                               !- Checksum
  ,                                       !- Start Date Actual Year
  Sunday;                                 !- Start Day of Week

OS:YearDescription,
  {1189bc5e-b41e-4b67-a38a-6ee90a99e541}, !- Handle
  2007,                                   !- Calendar Year
  ,                                       !- Day of Week for Start Day
  ;                                       !- Is Leap Year

OS:Site,
  {9cc252bd-c935-4c55-9b5f-7ab72e2c452e}, !- Handle
  Buffalo Niagara Intl Ap_NY,             !- Name
  42.93,                                  !- Latitude {deg}
  -78.73,                                 !- Longitude {deg}
  -5,                                     !- Time Zone {hr}
  215,                                    !- Elevation {m}
  Suburbs,                                !- Terrain
  Yes;                                    !- Keep Site Location Information

OS:RunPeriodControl:DaylightSavingTime,
  {ac9f5d8e-94d2-49ec-87e8-a67bc5cd00db}, !- Handle
  Mar 12,                                 !- Start Date
  Nov 5;                                  !- End Date

OS:Site:GroundTemperature:Shallow,
  {d4e008d0-520e-485f-97a3-42cc4a35aed6}, !- Handle
  4.30207395723828,                       !- January Surface Ground Temperature {C}
  2.29327249652502,                       !- February Surface Ground Temperature {C}
  2.13240047156047,                       !- March Surface Ground Temperature {C}
  3.08567940719286,                       !- April Surface Ground Temperature {C}
  6.91256312497526,                       !- May Surface Ground Temperature {C}
  10.7216195949507,                       !- June Surface Ground Temperature {C}
  14.0238679822574,                       !- July Surface Ground Temperature {C}
  16.1157611184724,                       !- August Surface Ground Temperature {C}
  16.2934789303462,                       !- September Surface Ground Temperature {C}
  14.5920754632847,                       !- October Surface Ground Temperature {C}
  11.374036348653,                        !- November Surface Ground Temperature {C}
  7.68182621661674;                       !- December Surface Ground Temperature {C}

OS:ThermalZone,
  {f7cadf8b-54f1-4aed-90d1-38921bed4c2a}, !- Handle
  conditioned space,                      !- Name
  1,                                      !- Multiplier
  ,                                       !- Ceiling Height {m}
  692.06373070848,                        !- Volume {m3}
  ,                                       !- Floor Area {m2}
  ,                                       !- Zone Inside Convection Algorithm
  ,                                       !- Zone Outside Convection Algorithm
  ,                                       !- Zone Conditioning Equipment List Name
  {374af8e0-0794-485c-a204-61d339784780}, !- Zone Air Inlet Port List
  {ab21ff22-d0d8-4d4e-af88-730728121231}, !- Zone Air Exhaust Port List
  {42eb0782-d9ed-409e-bf15-8533de8d7dee}, !- Zone Air Node Name
  {0e06e682-f6dc-49f7-9b1e-e03f106d78fc}, !- Zone Return Air Port List
  ,                                       !- Primary Daylighting Control Name
  ,                                       !- Fraction of Zone Controlled by Primary Daylighting Control
  ,                                       !- Secondary Daylighting Control Name
  ,                                       !- Fraction of Zone Controlled by Secondary Daylighting Control
  ,                                       !- Illuminance Map Name
  ,                                       !- Group Rendering Name
  {3f2bfd75-fc08-4b53-90a3-29a677c626e0}, !- Thermostat Name
  No;                                     !- Use Ideal Air Loads

OS:Node,
  {c9a99b93-1dbe-4d73-81e8-346994fb4808}, !- Handle
  Node 1,                                 !- Name
  {42eb0782-d9ed-409e-bf15-8533de8d7dee}, !- Inlet Port
  ;                                       !- Outlet Port

OS:Connection,
  {42eb0782-d9ed-409e-bf15-8533de8d7dee}, !- Handle
  {f7cadf8b-54f1-4aed-90d1-38921bed4c2a}, !- Source Object
  11,                                     !- Outlet Port
  {c9a99b93-1dbe-4d73-81e8-346994fb4808}, !- Target Object
  2;                                      !- Inlet Port

OS:PortList,
  {374af8e0-0794-485c-a204-61d339784780}, !- Handle
  {f7cadf8b-54f1-4aed-90d1-38921bed4c2a}, !- HVAC Component
  {4807c76e-125c-4df8-afdb-75c75148d7e2}; !- Port 1

OS:PortList,
  {ab21ff22-d0d8-4d4e-af88-730728121231}, !- Handle
  {f7cadf8b-54f1-4aed-90d1-38921bed4c2a}; !- HVAC Component

OS:PortList,
  {0e06e682-f6dc-49f7-9b1e-e03f106d78fc}, !- Handle
  {f7cadf8b-54f1-4aed-90d1-38921bed4c2a}, !- HVAC Component
  {c87eec6d-fb05-4aa1-837d-9f83c6a53752}; !- Port 1

OS:Sizing:Zone,
  {15fd213e-a7ca-4b8d-bd0b-308daf438537}, !- Handle
  {f7cadf8b-54f1-4aed-90d1-38921bed4c2a}, !- Zone or ZoneList Name
  SupplyAirTemperature,                   !- Zone Cooling Design Supply Air Temperature Input Method
  14,                                     !- Zone Cooling Design Supply Air Temperature {C}
  11.11,                                  !- Zone Cooling Design Supply Air Temperature Difference {deltaC}
  SupplyAirTemperature,                   !- Zone Heating Design Supply Air Temperature Input Method
  40,                                     !- Zone Heating Design Supply Air Temperature {C}
  11.11,                                  !- Zone Heating Design Supply Air Temperature Difference {deltaC}
  0.0085,                                 !- Zone Cooling Design Supply Air Humidity Ratio {kg-H2O/kg-air}
  0.008,                                  !- Zone Heating Design Supply Air Humidity Ratio {kg-H2O/kg-air}
  ,                                       !- Zone Heating Sizing Factor
  ,                                       !- Zone Cooling Sizing Factor
  DesignDay,                              !- Cooling Design Air Flow Method
  ,                                       !- Cooling Design Air Flow Rate {m3/s}
  ,                                       !- Cooling Minimum Air Flow per Zone Floor Area {m3/s-m2}
  ,                                       !- Cooling Minimum Air Flow {m3/s}
  ,                                       !- Cooling Minimum Air Flow Fraction
  DesignDay,                              !- Heating Design Air Flow Method
  ,                                       !- Heating Design Air Flow Rate {m3/s}
  ,                                       !- Heating Maximum Air Flow per Zone Floor Area {m3/s-m2}
  ,                                       !- Heating Maximum Air Flow {m3/s}
  ,                                       !- Heating Maximum Air Flow Fraction
  No,                                     !- Account for Dedicated Outdoor Air System
  NeutralSupplyAir,                       !- Dedicated Outdoor Air System Control Strategy
  autosize,                               !- Dedicated Outdoor Air Low Setpoint Temperature for Design {C}
  autosize,                               !- Dedicated Outdoor Air High Setpoint Temperature for Design {C}
  Sensible Load Only No Latent Load,      !- Zone Load Sizing Method
  HumidityRatioDifference,                !- Zone Latent Cooling Design Supply Air Humidity Ratio Input Method
  ,                                       !- Zone Dehumidification Design Supply Air Humidity Ratio {kgWater/kgDryAir}
  0.005,                                  !- Zone Cooling Design Supply Air Humidity Ratio Difference {kgWater/kgDryAir}
  HumidityRatioDifference,                !- Zone Latent Heating Design Supply Air Humidity Ratio Input Method
  ,                                       !- Zone Humidification Design Supply Air Humidity Ratio {kgWater/kgDryAir}
  0.005,                                  !- Zone Humidification Design Supply Air Humidity Ratio Difference {kgWater/kgDryAir}
  ,                                       !- Zone Humidistat Dehumidification Set Point Schedule Name
  ,                                       !- Zone Humidistat Humidification Set Point Schedule Name
  ,                                       !- Design Zone Air Distribution Effectiveness in Cooling Mode
  ,                                       !- Design Zone Air Distribution Effectiveness in Heating Mode
  ,                                       !- Design Zone Secondary Recirculation Fraction {dimensionless}
  ,                                       !- Design Minimum Zone Ventilation Efficiency {dimensionless}
  Coincident;                             !- Sizing Option

OS:ZoneHVAC:EquipmentList,
  {ca6d13fa-3bff-4c3e-87bc-f8dbdad40f44}, !- Handle
  Zone HVAC Equipment List 1,             !- Name
  {f7cadf8b-54f1-4aed-90d1-38921bed4c2a}, !- Thermal Zone
  ,                                       !- Load Distribution Scheme
  {11db90bb-ae19-484f-9d4e-05335600473c}, !- Zone Equipment 1
  1,                                      !- Zone Equipment Cooling Sequence 1
  1,                                      !- Zone Equipment Heating or No-Load Sequence 1
  {08f87999-8ba9-498d-ab68-04d787667d56}, !- Zone Equipment Sequential Cooling Fraction Schedule Name 1
  {984357a7-5761-41c3-b6dd-cb266dd801e8}, !- Zone Equipment Sequential Heating Fraction Schedule Name 1
  {1a4fb909-43ef-49b6-9730-5f259c226ff7}, !- Zone Equipment 2
  2,                                      !- Zone Equipment Cooling Sequence 2
  2,                                      !- Zone Equipment Heating or No-Load Sequence 2
  {f7be3525-60ef-4dfe-94c2-0a312d13ef19}, !- Zone Equipment Sequential Cooling Fraction Schedule Name 2
  {adf301b7-84f7-4383-9d35-bda8d81a7115}; !- Zone Equipment Sequential Heating Fraction Schedule Name 2

OS:AdditionalProperties,
  {d3beb157-7708-4a7d-94d0-bbb9c623ef4c}, !- Handle
  {f7cadf8b-54f1-4aed-90d1-38921bed4c2a}, !- Object Name
  ObjectType,                             !- Feature Name 1
  String,                                 !- Feature Data Type 1
  conditioned space;                      !- Feature Value 1

OS:Space,
  {1592775d-87c9-4c38-8f30-8a3f4da09591}, !- Handle
  conditioned space 1,                    !- Name
  ,                                       !- Space Type Name
  ,                                       !- Default Construction Set Name
  ,                                       !- Default Schedule Set Name
  ,                                       !- Direction of Relative North {deg}
  ,                                       !- X Origin {m}
  ,                                       !- Y Origin {m}
  ,                                       !- Z Origin {m}
  ,                                       !- Building Story Name
  {f7cadf8b-54f1-4aed-90d1-38921bed4c2a}, !- Thermal Zone Name
  ,                                       !- Part of Total Floor Area
  ,                                       !- Design Specification Outdoor Air Object Name
  ,                                       !- Building Unit Name
  692.06373070848;                        !- Volume {m3}

OS:Schedule:Ruleset,
  {19ded40f-2813-4200-8d98-94fb11e02a11}, !- Handle
  heating setpoint,                       !- Name
  {04d44ab8-72d3-49fb-b8ed-24a8f7f4d5ef}, !- Schedule Type Limits Name
  {9b7920de-c725-483f-8dfb-b61c36901699}; !- Default Day Schedule Name

OS:Schedule:Day,
  {9b7920de-c725-483f-8dfb-b61c36901699}, !- Handle
  heating setpoint default day,           !- Name
  {04d44ab8-72d3-49fb-b8ed-24a8f7f4d5ef}, !- Schedule Type Limits Name
  ,                                       !- Interpolate to Timestep
  24,                                     !- Hour 1
  0,                                      !- Minute 1
  0;                                      !- Value Until Time 1

OS:Schedule:Rule,
  {0ecee60e-344c-4b3d-9bda-6329d60aee2a}, !- Handle
  heating setpoint allday rule,           !- Name
  {19ded40f-2813-4200-8d98-94fb11e02a11}, !- Schedule Ruleset Name
  0,                                      !- Rule Order
  {f730667a-d67b-4f4e-bbc7-e7e72555fc88}, !- Day Schedule Name
  Yes,                                    !- Apply Sunday
  Yes,                                    !- Apply Monday
  Yes,                                    !- Apply Tuesday
  Yes,                                    !- Apply Wednesday
  Yes,                                    !- Apply Thursday
  Yes,                                    !- Apply Friday
  Yes,                                    !- Apply Saturday
  DateRange,                              !- Date Specification Type
  1,                                      !- Start Month
  1,                                      !- Start Day
  12,                                     !- End Month
  31;                                     !- End Day

OS:Schedule:Day,
  {f730667a-d67b-4f4e-bbc7-e7e72555fc88}, !- Handle
  heating setpoint day,                   !- Name
  {04d44ab8-72d3-49fb-b8ed-24a8f7f4d5ef}, !- Schedule Type Limits Name
  ,                                       !- Interpolate to Timestep
  24,                                     !- Hour 1
  0,                                      !- Minute 1
  20;                                     !- Value Until Time 1

OS:Schedule:Ruleset,
  {314408f1-ff5e-4774-86ec-a2c20303014f}, !- Handle
  cooling setpoint,                       !- Name
  {04d44ab8-72d3-49fb-b8ed-24a8f7f4d5ef}, !- Schedule Type Limits Name
  {4530361e-87e3-485d-9573-4d2df5ae3125}; !- Default Day Schedule Name

OS:Schedule:Day,
  {4530361e-87e3-485d-9573-4d2df5ae3125}, !- Handle
  cooling setpoint default day,           !- Name
  {04d44ab8-72d3-49fb-b8ed-24a8f7f4d5ef}, !- Schedule Type Limits Name
  ,                                       !- Interpolate to Timestep
  24,                                     !- Hour 1
  0,                                      !- Minute 1
  0;                                      !- Value Until Time 1

OS:Schedule:Rule,
  {e34d5046-7c3d-46d3-bc76-cfb7ea01b90c}, !- Handle
  cooling setpoint allday rule,           !- Name
  {314408f1-ff5e-4774-86ec-a2c20303014f}, !- Schedule Ruleset Name
  0,                                      !- Rule Order
  {69d03ab5-a167-4c39-ad52-9754c732f0eb}, !- Day Schedule Name
  Yes,                                    !- Apply Sunday
  Yes,                                    !- Apply Monday
  Yes,                                    !- Apply Tuesday
  Yes,                                    !- Apply Wednesday
  Yes,                                    !- Apply Thursday
  Yes,                                    !- Apply Friday
  Yes,                                    !- Apply Saturday
  DateRange,                              !- Date Specification Type
  1,                                      !- Start Month
  1,                                      !- Start Day
  12,                                     !- End Month
  31;                                     !- End Day

OS:Schedule:Day,
  {69d03ab5-a167-4c39-ad52-9754c732f0eb}, !- Handle
  cooling setpoint day,                   !- Name
  {04d44ab8-72d3-49fb-b8ed-24a8f7f4d5ef}, !- Schedule Type Limits Name
  ,                                       !- Interpolate to Timestep
  24,                                     !- Hour 1
  0,                                      !- Minute 1
  25.5555555555556;                       !- Value Until Time 1

OS:ThermostatSetpoint:DualSetpoint,
  {3f2bfd75-fc08-4b53-90a3-29a677c626e0}, !- Handle
  conditioned space temperature setpoint, !- Name
  {19ded40f-2813-4200-8d98-94fb11e02a11}, !- Heating Setpoint Temperature Schedule Name
  {314408f1-ff5e-4774-86ec-a2c20303014f}, !- Cooling Setpoint Temperature Schedule Name
  0;                                      !- Temperature Difference Between Cutout And Setpoint {deltaC}

OS:ScheduleTypeLimits,
  {04d44ab8-72d3-49fb-b8ed-24a8f7f4d5ef}, !- Handle
  Temperature,                            !- Name
  ,                                       !- Lower Limit Value
  ,                                       !- Upper Limit Value
  Continuous,                             !- Numeric Type
  Temperature;                            !- Unit Type

OS:Surface,
  {efef4789-e62f-448f-b4f6-b4686a739d75}, !- Handle
  Roof1,                                  !- Name
  RoofCeiling,                            !- Surface Type
  {75d1235d-ca39-4b7e-8606-c55fe6fa436c}, !- Construction Name
  {55099b1e-b057-4c75-b9c8-248f54537cf9}, !- Space Name
  Outdoors,                               !- Outside Boundary Condition
  ,                                       !- Outside Boundary Condition Object
  SunExposed,                             !- Sun Exposure
  WindExposed,                            !- Wind Exposure
  ,                                       !- View Factor to Ground
  ,                                       !- Number of Vertices
  -26.9347048849634, 58.0557891618865, 2.4384, !- X,Y,Z Vertex 1 {m}
  -26.9347048849634, 46.7895631136661, 8.0715130241102, !- X,Y,Z Vertex 2 {m}
  -14.3386812381136, 46.7895631136661, 8.0715130241102, !- X,Y,Z Vertex 3 {m}
  -14.3386812381136, 58.0557891618865, 2.4384; !- X,Y,Z Vertex 4 {m}

OS:AdditionalProperties,
  {56be5e8a-5621-4559-bac4-46973e3c5670}, !- Handle
  {efef4789-e62f-448f-b4f6-b4686a739d75}, !- Object Name
  Length,                                 !- Feature Name 1
  Double,                                 !- Feature Data Type 1
  41.325536899113608,                     !- Feature Value 1
  Width,                                  !- Feature Name 2
  Double,                                 !- Feature Data Type 2
  41.325536899113601,                     !- Feature Value 2
  Azimuth,                                !- Feature Name 3
  Integer,                                !- Feature Data Type 3
  0,                                      !- Feature Value 3
  Tilt,                                   !- Feature Name 4
  Double,                                 !- Feature Data Type 4
  0.5,                                    !- Feature Value 4
  SurfaceType,                            !- Feature Name 5
  String,                                 !- Feature Data Type 5
  Roof;                                   !- Feature Value 5

OS:ThermalZone,
  {bd4c431f-82ae-4983-ac82-23b81043d795}, !- Handle
  attic - vented,                         !- Name
  1,                                      !- Multiplier
  ,                                       !- Ceiling Height {m}
  356.389957095237,                       !- Volume {m3}
  ,                                       !- Floor Area {m2}
  ,                                       !- Zone Inside Convection Algorithm
  ,                                       !- Zone Outside Convection Algorithm
  ,                                       !- Zone Conditioning Equipment List Name
  {66143db1-ced7-4066-93a0-ffe0dc94e62d}, !- Zone Air Inlet Port List
  {60d50ea0-5d76-47db-be11-abfeb320935a}, !- Zone Air Exhaust Port List
  {aeb92f3c-060f-4ea9-840e-553ee597fbe4}, !- Zone Air Node Name
  {9c178d23-5dd5-4432-a126-55d98a8d21c7}, !- Zone Return Air Port List
  ,                                       !- Primary Daylighting Control Name
  ,                                       !- Fraction of Zone Controlled by Primary Daylighting Control
  ,                                       !- Secondary Daylighting Control Name
  ,                                       !- Fraction of Zone Controlled by Secondary Daylighting Control
  ,                                       !- Illuminance Map Name
  ,                                       !- Group Rendering Name
  ,                                       !- Thermostat Name
  No;                                     !- Use Ideal Air Loads

OS:Node,
  {c8974361-94c2-4268-aacd-85ec4d440863}, !- Handle
  Node 2,                                 !- Name
  {aeb92f3c-060f-4ea9-840e-553ee597fbe4}, !- Inlet Port
  ;                                       !- Outlet Port

OS:Connection,
  {aeb92f3c-060f-4ea9-840e-553ee597fbe4}, !- Handle
  {bd4c431f-82ae-4983-ac82-23b81043d795}, !- Source Object
  11,                                     !- Outlet Port
  {c8974361-94c2-4268-aacd-85ec4d440863}, !- Target Object
  2;                                      !- Inlet Port

OS:PortList,
  {66143db1-ced7-4066-93a0-ffe0dc94e62d}, !- Handle
  {bd4c431f-82ae-4983-ac82-23b81043d795}; !- HVAC Component

OS:PortList,
  {60d50ea0-5d76-47db-be11-abfeb320935a}, !- Handle
  {bd4c431f-82ae-4983-ac82-23b81043d795}; !- HVAC Component

OS:PortList,
  {9c178d23-5dd5-4432-a126-55d98a8d21c7}, !- Handle
  {bd4c431f-82ae-4983-ac82-23b81043d795}; !- HVAC Component

OS:Sizing:Zone,
  {5b0b4ff4-7da3-447c-807c-cccc4e778712}, !- Handle
  {bd4c431f-82ae-4983-ac82-23b81043d795}, !- Zone or ZoneList Name
  SupplyAirTemperature,                   !- Zone Cooling Design Supply Air Temperature Input Method
  14,                                     !- Zone Cooling Design Supply Air Temperature {C}
  11.11,                                  !- Zone Cooling Design Supply Air Temperature Difference {deltaC}
  SupplyAirTemperature,                   !- Zone Heating Design Supply Air Temperature Input Method
  40,                                     !- Zone Heating Design Supply Air Temperature {C}
  11.11,                                  !- Zone Heating Design Supply Air Temperature Difference {deltaC}
  0.0085,                                 !- Zone Cooling Design Supply Air Humidity Ratio {kg-H2O/kg-air}
  0.008,                                  !- Zone Heating Design Supply Air Humidity Ratio {kg-H2O/kg-air}
  ,                                       !- Zone Heating Sizing Factor
  ,                                       !- Zone Cooling Sizing Factor
  DesignDay,                              !- Cooling Design Air Flow Method
  ,                                       !- Cooling Design Air Flow Rate {m3/s}
  ,                                       !- Cooling Minimum Air Flow per Zone Floor Area {m3/s-m2}
  ,                                       !- Cooling Minimum Air Flow {m3/s}
  ,                                       !- Cooling Minimum Air Flow Fraction
  DesignDay,                              !- Heating Design Air Flow Method
  ,                                       !- Heating Design Air Flow Rate {m3/s}
  ,                                       !- Heating Maximum Air Flow per Zone Floor Area {m3/s-m2}
  ,                                       !- Heating Maximum Air Flow {m3/s}
  ,                                       !- Heating Maximum Air Flow Fraction
  No,                                     !- Account for Dedicated Outdoor Air System
  NeutralSupplyAir,                       !- Dedicated Outdoor Air System Control Strategy
  autosize,                               !- Dedicated Outdoor Air Low Setpoint Temperature for Design {C}
  autosize,                               !- Dedicated Outdoor Air High Setpoint Temperature for Design {C}
  Sensible Load Only No Latent Load,      !- Zone Load Sizing Method
  HumidityRatioDifference,                !- Zone Latent Cooling Design Supply Air Humidity Ratio Input Method
  ,                                       !- Zone Dehumidification Design Supply Air Humidity Ratio {kgWater/kgDryAir}
  0.005,                                  !- Zone Cooling Design Supply Air Humidity Ratio Difference {kgWater/kgDryAir}
  HumidityRatioDifference,                !- Zone Latent Heating Design Supply Air Humidity Ratio Input Method
  ,                                       !- Zone Humidification Design Supply Air Humidity Ratio {kgWater/kgDryAir}
  0.005,                                  !- Zone Humidification Design Supply Air Humidity Ratio Difference {kgWater/kgDryAir}
  ,                                       !- Zone Humidistat Dehumidification Set Point Schedule Name
  ,                                       !- Zone Humidistat Humidification Set Point Schedule Name
  ,                                       !- Design Zone Air Distribution Effectiveness in Cooling Mode
  ,                                       !- Design Zone Air Distribution Effectiveness in Heating Mode
  ,                                       !- Design Zone Secondary Recirculation Fraction {dimensionless}
  ,                                       !- Design Minimum Zone Ventilation Efficiency {dimensionless}
  Coincident;                             !- Sizing Option

OS:ZoneHVAC:EquipmentList,
  {125f65b2-6e13-48e2-9b66-370aa45a3bb2}, !- Handle
  Zone HVAC Equipment List 2,             !- Name
  {bd4c431f-82ae-4983-ac82-23b81043d795}; !- Thermal Zone

OS:AdditionalProperties,
  {45b443b7-2f66-4e50-b5a9-0f05761e72d2}, !- Handle
  {bd4c431f-82ae-4983-ac82-23b81043d795}, !- Object Name
  ObjectType,                             !- Feature Name 1
  String,                                 !- Feature Data Type 1
  attic - vented;                         !- Feature Value 1

OS:Space,
  {55099b1e-b057-4c75-b9c8-248f54537cf9}, !- Handle
  attic - vented 1,                       !- Name
  ,                                       !- Space Type Name
  ,                                       !- Default Construction Set Name
  ,                                       !- Default Schedule Set Name
  ,                                       !- Direction of Relative North {deg}
  ,                                       !- X Origin {m}
  ,                                       !- Y Origin {m}
  ,                                       !- Z Origin {m}
  ,                                       !- Building Story Name
  {bd4c431f-82ae-4983-ac82-23b81043d795}, !- Thermal Zone Name
  ,                                       !- Part of Total Floor Area
  ,                                       !- Design Specification Outdoor Air Object Name
  ,                                       !- Building Unit Name
  356.389957095237;                       !- Volume {m3}

OS:Material,
  {7eaccaae-4b4e-4a9c-b437-e2be6618e5e1}, !- Handle
  asphalt or fiberglass shingles,         !- Name