
OS:Version,
  {7d76d6a2-d2e6-4e4f-b136-3b5ade6d2e54}, !- Handle
  3.10.0;                                 !- Version Identifier

OS:SimulationControl,
  {f40df9cb-287a-4688-b17e-b6935000e2e8}, !- Handle
  ,                                       !- Do Zone Sizing Calculation
  ,                                       !- Do System Sizing Calculation
  ,                                       !- Do Plant Sizing Calculation
  No;                                     !- Run Simulation for Sizing Periods

OS:Timestep,
  {a6e9b53d-1714-46da-b9ab-1238dbc7204d}, !- Handle
  1;                                      !- Number of Timesteps per Hour

OS:ShadowCalculation,
  {25063920-721c-487e-937a-e193124f1f56}, !- Handle
  PolygonClipping,                        !- Shading Calculation Method
  ,                                       !- Shading Calculation Update Frequency Method
  20,                                     !- Shading Calculation Update Frequency
  200,                                    !- Maximum Figures in Shadow Overlap Calculations
  ,                                       !- Polygon Clipping Algorithm
  512,                                    !- Pixel Counting Resolution
  ,                                       !- Sky Diffuse Modeling Algorithm
  No,                                     !- Output External Shading Calculation Results
  No,                                     !- Disable Self-Shading Within Shading Zone Groups
  No;                                     !- Disable Self-Shading From Shading Zone Groups to Other Zones

OS:SurfaceConvectionAlgorithm:Outside,
  {e103dd01-ccf9-4b52-8d1d-13f71a0d7a3e}, !- Handle
  DOE-2;                                  !- Algorithm

OS:SurfaceConvectionAlgorithm:Inside,
  {1721bc46-a6d0-4fe3-84fa-105e7dce8302}, !- Handle
  TARP;                                   !- Algorithm

OS:ZoneCapacitanceMultiplier:ResearchSpecial,
  {77a6a60f-ee7a-463a-b98c-3b5738d6c8c3}, !- Handle
  7,                                      !- Temperature Capacity Multiplier
  15,                                     !- Humidity Capacity Multiplier
  ;                                       !- Carbon Dioxide Capacity Multiplier

OS:ConvergenceLimits,
  {447c25f1-05c3-4a27-96ff-2976d2cff07b}, !- Handle
  0;                                      !- Minimum System Timestep {minutes}

OS:RunPeriod,
  {813c421f-88a1-4cb7-8fe5-c0ff1dc5496c}, !- Handle
  Run Period 1,                           !- Name
  1,                                      !- Begin Month
  1,                                      !- Begin Day of Month
  12,                                     !- End Month
  31,                                     !- End Day of Month
  ,                                       !- Use Weather File Holidays and Special Days
  ,                                       !- Use Weather File Daylight Saving Period
  ,                                       !- Apply Weekend Holiday Rule
  ,                                       !- Use Weather File Rain Indicators
  ,                                       !- Use Weather File Snow Indicators
  ;                                       !- Number of Times Runperiod to be Repeated

OS:PerformancePrecisionTradeoffs,
  {637c44e7-cdf0-4cec-ac54-272fb140f13c}, !- Handle
  ,                                       !- Use Coil Direct Solutions
  CarrollMRT;                             !- Zone Radiant Exchange Algorithm

OS:WeatherFile,
  {532b4cc6-83e0-43e5-81dd-9fbb0d412742}, !- Handle
  Buffalo Niagara Intl Ap,                !- City
  NY,                                     !- State Province Region
  USA,                                    !- Country
  TMY3,                                   !- Data Source
  725280,                                 !- WMO Number
  42.93,                                  !- Latitude {deg}
  -78.73,                                 !- Longitude {deg}
  -5,                                     !- Time Zone {hr}
  215,                                    !- Elevation {m}
  /Users/nmoore/github/urbanopt-example-geojson-project/example_project/weather/USA_NY_Buffalo-Greater.Buffalo.Intl.AP.725280_TMY3.epw, !- Url
  6B50E0FF,                               !- Checksum
  ,                                       !- Start Date Actual Year
  Sunday;                                 !- Start Day of Week

OS:YearDescription,
  {bf9e63aa-de8e-4d5e-917f-2f623e2f675f}, !- Handle
  2007,                                   !- Calendar Year
  ,                                       !- Day of Week for Start Day
  ;                                       !- Is Leap Year

OS:Site,
  {6d52cfe9-823f-4440-a4a0-80b5d378caa2}, !- Handle
  Buffalo Niagara Intl Ap_NY,             !- Name
  42.93,                                  !- Latitude {deg}
  -78.73,                                 !- Longitude {deg}
  -5,                                     !- Time Zone {hr}
  215,                                    !- Elevation {m}
  Suburbs,                                !- Terrain
  Yes;                                    !- Keep Site Location Information

OS:RunPeriodControl:DaylightSavingTime,
  {0aab8518-fede-4939-bf46-4a259d4053bb}, !- Handle
  Mar 12,                                 !- Start Date
  Nov 5;                                  !- End Date

OS:Site:GroundTemperature:Shallow,
  {154c51ed-a2bd-405d-adbe-0fa4fbea532b}, !- Handle
  4.30207395723828,                       !- January Surface Ground Temperature {C}
  2.29327249652502,                       !- February Surface Ground Temperature {C}
  2.13240047156047,                       !- March Surface Ground Temperature {C}
  3.08567940719286,                       !- April Surface Ground Temperature {C}
  6.91256312497526,                       !- May Surface Ground Temperature {C}
  10.7216195949507,                       !- June Surface Ground Temperature {C}
  14.0238679822574,                       !- July Surface Ground Temperature {C}
  16.1157611184724,                       !- August Surface Ground Temperature {C}
  16.2934789303462,                       !- September Surface Ground Temperature {C}
  14.5920754632847,                       !- October Surface Ground Temperature {C}
  11.374036348653,                        !- November Surface Ground Temperature {C}
  7.68182621661674;                       !- December Surface Ground Temperature {C}

OS:ThermalZone,
  {922e52d1-2cee-4b23-bdae-7b889afe869d}, !- Handle
  conditioned space,                      !- Name
  1,                                      !- Multiplier
  ,                                       !- Ceiling Height {m}
  692.06373070848,                        !- Volume {m3}
  ,                                       !- Floor Area {m2}
  ,                                       !- Zone Inside Convection Algorithm
  ,                                       !- Zone Outside Convection Algorithm
  ,                                       !- Zone Conditioning Equipment List Name
  {1c0318a6-eb67-4d70-9276-8f7ad0eb6ea5}, !- Zone Air Inlet Port List
  {b0f31486-eca6-4388-afcb-993af27c7abb}, !- Zone Air Exhaust Port List
  {7be91144-7945-4870-aa91-95fca1f85989}, !- Zone Air Node Name
  {8ec7491a-aa70-4f02-82ea-4c41846196b0}, !- Zone Return Air Port List
  ,                                       !- Primary Daylighting Control Name
  ,                                       !- Fraction of Zone Controlled by Primary Daylighting Control
  ,                                       !- Secondary Daylighting Control Name
  ,                                       !- Fraction of Zone Controlled by Secondary Daylighting Control
  ,                                       !- Illuminance Map Name
  ,                                       !- Group Rendering Name
  {2c76c2e0-4dd6-4474-9ec7-844ef9ad9fea}, !- Thermostat Name
  No;                                     !- Use Ideal Air Loads

OS:Node,
  {9f57bc76-effa-42d0-ada3-68966ace6344}, !- Handle
  Node 1,                                 !- Name
  {7be91144-7945-4870-aa91-95fca1f85989}, !- Inlet Port
  ;                                       !- Outlet Port

OS:Connection,
  {7be91144-7945-4870-aa91-95fca1f85989}, !- Handle
  {922e52d1-2cee-4b23-bdae-7b889afe869d}, !- Source Object
  11,                                     !- Outlet Port
  {9f57bc76-effa-42d0-ada3-68966ace6344}, !- Target Object
  2;                                      !- Inlet Port

OS:PortList,
  {1c0318a6-eb67-4d70-9276-8f7ad0eb6ea5}, !- Handle
  {922e52d1-2cee-4b23-bdae-7b889afe869d}, !- HVAC Component
  {dc7d0713-2c26-4364-a942-10f7290bf194}; !- Port 1

OS:PortList,
  {b0f31486-eca6-4388-afcb-993af27c7abb}, !- Handle
  {922e52d1-2cee-4b23-bdae-7b889afe869d}; !- HVAC Component

OS:PortList,
  {8ec7491a-aa70-4f02-82ea-4c41846196b0}, !- Handle
  {922e52d1-2cee-4b23-bdae-7b889afe869d}, !- HVAC Component
  {2bd4092e-d042-45dc-bcac-95fb5aab38e2}; !- Port 1

OS:Sizing:Zone,
  {38d135bb-fec5-4c06-83d0-52264eea9ff0}, !- Handle
  {922e52d1-2cee-4b23-bdae-7b889afe869d}, !- Zone or ZoneList Name
  SupplyAirTemperature,                   !- Zone Cooling Design Supply Air Temperature Input Method
  14,                                     !- Zone Cooling Design Supply Air Temperature {C}
  11.11,                                  !- Zone Cooling Design Supply Air Temperature Difference {deltaC}
  SupplyAirTemperature,                   !- Zone Heating Design Supply Air Temperature Input Method
  40,                                     !- Zone Heating Design Supply Air Temperature {C}
  11.11,                                  !- Zone Heating Design Supply Air Temperature Difference {deltaC}
  0.0085,                                 !- Zone Cooling Design Supply Air Humidity Ratio {kg-H2O/kg-air}
  0.008,                                  !- Zone Heating Design Supply Air Humidity Ratio {kg-H2O/kg-air}
  ,                                       !- Zone Heating Sizing Factor
  ,                                       !- Zone Cooling Sizing Factor
  DesignDay,                              !- Cooling Design Air Flow Method
  ,                                       !- Cooling Design Air Flow Rate {m3/s}
  ,                                       !- Cooling Minimum Air Flow per Zone Floor Area {m3/s-m2}
  ,                                       !- Cooling Minimum Air Flow {m3/s}
  ,                                       !- Cooling Minimum Air Flow Fraction
  DesignDay,                              !- Heating Design Air Flow Method
  ,                                       !- Heating Design Air Flow Rate {m3/s}
  ,                                       !- Heating Maximum Air Flow per Zone Floor Area {m3/s-m2}
  ,                                       !- Heating Maximum Air Flow {m3/s}
  ,                                       !- Heating Maximum Air Flow Fraction
  No,                                     !- Account for Dedicated Outdoor Air System
  NeutralSupplyAir,                       !- Dedicated Outdoor Air System Control Strategy
  autosize,                               !- Dedicated Outdoor Air Low Setpoint Temperature for Design {C}
  autosize,                               !- Dedicated Outdoor Air High Setpoint Temperature for Design {C}
  Sensible Load Only No Latent Load,      !- Zone Load Sizing Method
  HumidityRatioDifference,                !- Zone Latent Cooling Design Supply Air Humidity Ratio Input Method
  ,                                       !- Zone Dehumidification Design Supply Air Humidity Ratio {kgWater/kgDryAir}
  0.005,                                  !- Zone Cooling Design Supply Air Humidity Ratio Difference {kgWater/kgDryAir}
  HumidityRatioDifference,                !- Zone Latent Heating Design Supply Air Humidity Ratio Input Method
  ,                                       !- Zone Humidification Design Supply Air Humidity Ratio {kgWater/kgDryAir}
  0.005,                                  !- Zone Humidification Design Supply Air Humidity Ratio Difference {kgWater/kgDryAir}
  ,                                       !- Zone Humidistat Dehumidification Set Point Schedule Name
  ,                                       !- Zone Humidistat Humidification Set Point Schedule Name
  ,                                       !- Design Zone Air Distribution Effectiveness in Cooling Mode
  ,                                       !- Design Zone Air Distribution Effectiveness in Heating Mode
  ,                                       !- Design Zone Secondary Recirculation Fraction {dimensionless}
  ,                                       !- Design Minimum Zone Ventilation Efficiency {dimensionless}
  Coincident;                             !- Sizing Option

OS:ZoneHVAC:EquipmentList,
  {79368a8b-5108-4554-b358-c456a0a95522}, !- Handle
  Zone HVAC Equipment List 1,             !- Name
  {922e52d1-2cee-4b23-bdae-7b889afe869d}, !- Thermal Zone
  ,                                       !- Load Distribution Scheme
  {7e2973cf-323f-4377-bb6b-f42eda99cbaf}, !- Zone Equipment 1
  1,                                      !- Zone Equipment Cooling Sequence 1
  1,                                      !- Zone Equipment Heating or No-Load Sequence 1
  {1b7f2937-ed4b-44c3-916e-d0a134002966}, !- Zone Equipment Sequential Cooling Fraction Schedule Name 1
  {45d4b70d-57a9-44ea-9d59-ea8477465d27}; !- Zone Equipment Sequential Heating Fraction Schedule Name 1

OS:AdditionalProperties,
  {21ddb2fc-f34a-4c0d-ba05-e0d853db496c}, !- Handle
  {922e52d1-2cee-4b23-bdae-7b889afe869d}, !- Object Name
  ObjectType,                             !- Feature Name 1
  String,                                 !- Feature Data Type 1
  conditioned space;                      !- Feature Value 1

OS:Space,
  {25d070e7-6f3a-45ae-a4d3-5bb20478e8e4}, !- Handle
  conditioned space 1,                    !- Name
  ,                                       !- Space Type Name
  ,                                       !- Default Construction Set Name
  ,                                       !- Default Schedule Set Name
  ,                                       !- Direction of Relative North {deg}
  ,                                       !- X Origin {m}
  ,                                       !- Y Origin {m}
  ,                                       !- Z Origin {m}
  ,                                       !- Building Story Name
  {922e52d1-2cee-4b23-bdae-7b889afe869d}, !- Thermal Zone Name
  ,                                       !- Part of Total Floor Area
  ,                                       !- Design Specification Outdoor Air Object Name
  ,                                       !- Building Unit Name
  692.06373070848;                        !- Volume {m3}

OS:Schedule:Ruleset,
  {1611ba15-72c5-4734-87cf-ddf548d5301f}, !- Handle
  heating setpoint,                       !- Name
  {c05d11b7-c276-469a-8fdb-9a2c4695443a}, !- Schedule Type Limits Name
  {b898cfdb-c74a-472e-99f3-444ce9a7634f}; !- Default Day Schedule Name

OS:Schedule:Day,
  {b898cfdb-c74a-472e-99f3-444ce9a7634f}, !- Handle
  heating setpoint default day,           !- Name
  {c05d11b7-c276-469a-8fdb-9a2c4695443a}, !- Schedule Type Limits Name
  ,                                       !- Interpolate to Timestep
  24,                                     !- Hour 1
  0,                                      !- Minute 1
  0;                                      !- Value Until Time 1

OS:Schedule:Rule,
  {9c5fdb81-07a4-459c-a923-11e09f326bce}, !- Handle
  heating setpoint allday rule,           !- Name
  {1611ba15-72c5-4734-87cf-ddf548d5301f}, !- Schedule Ruleset Name
  0,                                      !- Rule Order
  {32bd063c-6970-4f5b-87f5-330fba66fee5}, !- Day Schedule Name
  Yes,                                    !- Apply Sunday
  Yes,                                    !- Apply Monday
  Yes,                                    !- Apply Tuesday
  Yes,                                    !- Apply Wednesday
  Yes,                                    !- Apply Thursday
  Yes,                                    !- Apply Friday
  Yes,                                    !- Apply Saturday
  DateRange,                              !- Date Specification Type
  1,                                      !- Start Month
  1,                                      !- Start Day
  12,                                     !- End Month
  31;                                     !- End Day

OS:Schedule:Day,
  {32bd063c-6970-4f5b-87f5-330fba66fee5}, !- Handle
  heating setpoint day,                   !- Name
  {c05d11b7-c276-469a-8fdb-9a2c4695443a}, !- Schedule Type Limits Name
  ,                                       !- Interpolate to Timestep
  24,                                     !- Hour 1
  0,                                      !- Minute 1
  20;                                     !- Value Until Time 1

OS:Schedule:Ruleset,
  {68b69d1c-1725-40c3-89aa-71b9b919b5c4}, !- Handle
  cooling setpoint,                       !- Name
  {c05d11b7-c276-469a-8fdb-9a2c4695443a}, !- Schedule Type Limits Name
  {148587af-b3a5-4d24-817c-7fe50f48dee7}; !- Default Day Schedule Name

OS:Schedule:Day,
  {148587af-b3a5-4d24-817c-7fe50f48dee7}, !- Handle
  cooling setpoint default day,           !- Name
  {c05d11b7-c276-469a-8fdb-9a2c4695443a}, !- Schedule Type Limits Name
  ,                                       !- Interpolate to Timestep
  24,                                     !- Hour 1
  0,                                      !- Minute 1
  0;                                      !- Value Until Time 1

OS:Schedule:Rule,
  {da4560bc-80ec-4d10-b3a3-920492f144b6}, !- Handle
  cooling setpoint allday rule,           !- Name
  {68b69d1c-1725-40c3-89aa-71b9b919b5c4}, !- Schedule Ruleset Name
  0,                                      !- Rule Order
  {ed3cf04a-2f08-407a-abf9-d9772086cb20}, !- Day Schedule Name
  Yes,                                    !- Apply Sunday
  Yes,                                    !- Apply Monday
  Yes,                                    !- Apply Tuesday
  Yes,                                    !- Apply Wednesday
  Yes,                                    !- Apply Thursday
  Yes,                                    !- Apply Friday
  Yes,                                    !- Apply Saturday
  DateRange,                              !- Date Specification Type
  1,                                      !- Start Month
  1,                                      !- Start Day
  12,                                     !- End Month
  31;                                     !- End Day

OS:Schedule:Day,
  {ed3cf04a-2f08-407a-abf9-d9772086cb20}, !- Handle
  cooling setpoint day,                   !- Name
  {c05d11b7-c276-469a-8fdb-9a2c4695443a}, !- Schedule Type Limits Name
  ,                                       !- Interpolate to Timestep
  24,                                     !- Hour 1
  0,                                      !- Minute 1
  25.5555555555556;                       !- Value Until Time 1

OS:ThermostatSetpoint:DualSetpoint,
  {2c76c2e0-4dd6-4474-9ec7-844ef9ad9fea}, !- Handle
  conditioned space temperature setpoint, !- Name
  {1611ba15-72c5-4734-87cf-ddf548d5301f}, !- Heating Setpoint Temperature Schedule Name
  {68b69d1c-1725-40c3-89aa-71b9b919b5c4}, !- Cooling Setpoint Temperature Schedule Name
  0;                                      !- Temperature Difference Between Cutout And Setpoint {deltaC}

OS:ScheduleTypeLimits,
  {c05d11b7-c276-469a-8fdb-9a2c4695443a}, !- Handle
  Temperature,                            !- Name
  ,                                       !- Lower Limit Value
  ,                                       !- Upper Limit Value
  Continuous,                             !- Numeric Type
  Temperature;                            !- Unit Type

OS:Surface,
  {e7bc523b-4e11-4cc0-99bf-bec62d24783c}, !- Handle
  Roof1,                                  !- Name
  RoofCeiling,                            !- Surface Type
  {0203b12a-6281-4ce4-9490-68ddbb97c46c}, !- Construction Name
  {299340cd-03e0-49ee-86cc-dfa330bb5026}, !- Space Name
  Outdoors,                               !- Outside Boundary Condition
  ,                                       !- Outside Boundary Condition Object
  SunExposed,                             !- Sun Exposure
  WindExposed,                            !- Wind Exposure
  ,                                       !- View Factor to Ground
  ,                                       !- Number of Vertices
  9.8030170292795, 22.3990406761293, 3.048, !- X,Y,Z Vertex 1 {m}
  9.8030170292795, 11.1328146279089, 8.6811130241102, !- X,Y,Z Vertex 2 {m}
  22.3990406761293, 11.1328146279089, 8.6811130241102, !- X,Y,Z Vertex 3 {m}
  22.3990406761293, 22.3990406761293, 3.048; !- X,Y,Z Vertex 4 {m}

OS:AdditionalProperties,
  {62f7a609-5ea9-45a2-851d-5f67e30c388c}, !- Handle
  {e7bc523b-4e11-4cc0-99bf-bec62d24783c}, !- Object Name
  Length,                                 !- Feature Name 1
  Double,                                 !- Feature Data Type 1
  41.325536899113608,                     !- Feature Value 1
  Width,                                  !- Feature Name 2
  Double,                                 !- Feature Data Type 2
  41.325536899113601,                     !- Feature Value 2
  Azimuth,                                !- Feature Name 3
  Integer,                                !- Feature Data Type 3
  0,                                      !- Feature Value 3
  Tilt,                                   !- Feature Name 4
  Double,                                 !- Feature Data Type 4
  0.5,                                    !- Feature Value 4
  SurfaceType,                            !- Feature Name 5
  String,                                 !- Feature Data Type 5
  Roof;                                   !- Feature Value 5

OS:ThermalZone,
  {83dfd468-95cf-4dba-9785-dea7559a6ae4}, !- Handle
  attic - vented,                         !- Name
  1,                                      !- Multiplier
  ,                                       !- Ceiling Height {m}
  356.390921899745,                       !- Volume {m3}
  ,                                       !- Floor Area {m2}
  ,                                       !- Zone Inside Convection Algorithm
  ,                                       !- Zone Outside Convection Algorithm
  ,                                       !- Zone Conditioning Equipment List Name
  {45b465bf-3bb5-4430-9d10-d7e99085a9f4}, !- Zone Air Inlet Port List
  {ab03f9cc-68ae-456d-b6f9-108eddadba31}, !- Zone Air Exhaust Port List
  {38b3ae56-7d18-48df-b913-8a0aa40a744d}, !- Zone Air Node Name
  {55a4f961-7c0b-481b-bb65-9ff92eb15bce}, !- Zone Return Air Port List
  ,                                       !- Primary Daylighting Control Name
  ,                                       !- Fraction of Zone Controlled by Primary Daylighting Control
  ,                                       !- Secondary Daylighting Control Name
  ,                                       !- Fraction of Zone Controlled by Secondary Daylighting Control
  ,                                       !- Illuminance Map Name
  ,                                       !- Group Rendering Name
  ,                                       !- Thermostat Name
  No;                                     !- Use Ideal Air Loads

OS:Node,
  {6c54aecc-ba3f-4dc2-bce8-e39800a62f81}, !- Handle
  Node 2,                                 !- Name
  {38b3ae56-7d18-48df-b913-8a0aa40a744d}, !- Inlet Port
  ;                                       !- Outlet Port

OS:Connection,
  {38b3ae56-7d18-48df-b913-8a0aa40a744d}, !- Handle
  {83dfd468-95cf-4dba-9785-dea7559a6ae4}, !- Source Object
  11,                                     !- Outlet Port
  {6c54aecc-ba3f-4dc2-bce8-e39800a62f81}, !- Target Object
  2;                                      !- Inlet Port

OS:PortList,
  {45b465bf-3bb5-4430-9d10-d7e99085a9f4}, !- Handle
  {83dfd468-95cf-4dba-9785-dea7559a6ae4}; !- HVAC Component

OS:PortList,
  {ab03f9cc-68ae-456d-b6f9-108eddadba31}, !- Handle
  {83dfd468-95cf-4dba-9785-dea7559a6ae4}; !- HVAC Component

OS:PortList,
  {55a4f961-7c0b-481b-bb65-9ff92eb15bce}, !- Handle
  {83dfd468-95cf-4dba-9785-dea7559a6ae4}; !- HVAC Component

OS:Sizing:Zone,
  {86c0f757-0213-4e65-8650-a56007f425cb}, !- Handle
  {83dfd468-95cf-4dba-9785-dea7559a6ae4}, !- Zone or ZoneList Name
  SupplyAirTemperature,                   !- Zone Cooling Design Supply Air Temperature Input Method
  14,                                     !- Zone Cooling Design Supply Air Temperature {C}
  11.11,                                  !- Zone Cooling Design Supply Air Temperature Difference {deltaC}
  SupplyAirTemperature,                   !- Zone Heating Design Supply Air Temperature Input Method
  40,                                     !- Zone Heating Design Supply Air Temperature {C}
  11.11,                                  !- Zone Heating Design Supply Air Temperature Difference {deltaC}
  0.0085,                                 !- Zone Cooling Design Supply Air Humidity Ratio {kg-H2O/kg-air}
  0.008,                                  !- Zone Heating Design Supply Air Humidity Ratio {kg-H2O/kg-air}
  ,                                       !- Zone Heating Sizing Factor
  ,                                       !- Zone Cooling Sizing Factor
  DesignDay,                              !- Cooling Design Air Flow Method
  ,                                       !- Cooling Design Air Flow Rate {m3/s}
  ,                                       !- Cooling Minimum Air Flow per Zone Floor Area {m3/s-m2}
  ,                                       !- Cooling Minimum Air Flow {m3/s}
  ,                                       !- Cooling Minimum Air Flow Fraction
  DesignDay,                              !- Heating Design Air Flow Method
  ,                                       !- Heating Design Air Flow Rate {m3/s}
  ,                                       !- Heating Maximum Air Flow per Zone Floor Area {m3/s-m2}
  ,                                       !- Heating Maximum Air Flow {m3/s}
  ,                                       !- Heating Maximum Air Flow Fraction
  No,                                     !- Account for Dedicated Outdoor Air System
  NeutralSupplyAir,                       !- Dedicated Outdoor Air System Control Strategy
  autosize,                               !- Dedicated Outdoor Air Low Setpoint Temperature for Design {C}
  autosize,                               !- Dedicated Outdoor Air High Setpoint Temperature for Design {C}
  Sensible Load Only No Latent Load,      !- Zone Load Sizing Method
  HumidityRatioDifference,                !- Zone Latent Cooling Design Supply Air Humidity Ratio Input Method
  ,                                       !- Zone Dehumidification Design Supply Air Humidity Ratio {kgWater/kgDryAir}
  0.005,                                  !- Zone Cooling Design Supply Air Humidity Ratio Difference {kgWater/kgDryAir}
  HumidityRatioDifference,                !- Zone Latent Heating Design Supply Air Humidity Ratio Input Method
  ,                                       !- Zone Humidification Design Supply Air Humidity Ratio {kgWater/kgDryAir}
  0.005,                                  !- Zone Humidification Design Supply Air Humidity Ratio Difference {kgWater/kgDryAir}
  ,                                       !- Zone Humidistat Dehumidification Set Point Schedule Name
  ,                                       !- Zone Humidistat Humidification Set Point Schedule Name
  ,                                       !- Design Zone Air Distribution Effectiveness in Cooling Mode
  ,                                       !- Design Zone Air Distribution Effectiveness in Heating Mode
  ,                                       !- Design Zone Secondary Recirculation Fraction {dimensionless}
  ,                                       !- Design Minimum Zone Ventilation Efficiency {dimensionless}
  Coincident;                             !- Sizing Option

OS:ZoneHVAC:EquipmentList,
  {e84f3028-fe29-49f1-aacd-5015f248b3c8}, !- Handle
  Zone HVAC Equipment List 2,             !- Name
  {83dfd468-95cf-4dba-9785-dea7559a6ae4}; !- Thermal Zone

OS:AdditionalProperties,
  {9b121e32-3540-406f-8ba8-db61c0cb257a}, !- Handle
  {83dfd468-95cf-4dba-9785-dea7559a6ae4}, !- Object Name
  ObjectType,                             !- Feature Name 1
  String,                                 !- Feature Data Type 1
  attic - vented;                         !- Feature Value 1

OS:Space,
  {299340cd-03e0-49ee-86cc-dfa330bb5026}, !- Handle
  attic - vented 1,                       !- Name
  ,                                       !- Space Type Name
  ,                                       !- Default Construction Set Name
  ,                                       !- Default Schedule Set Name
  ,                                       !- Direction of Relative North {deg}
  ,                                       !- X Origin {m}
  ,                                       !- Y Origin {m}
  ,                                       !- Z Origin {m}
  ,                                       !- Building Story Name
  {83dfd468-95cf-4dba-9785-dea7559a6ae4}, !- Thermal Zone Name
  ,                                       !- Part of Total Floor Area
  ,                                       !- Design Specification Outdoor Air Object Name
  ,                                       !- Building Unit Name
  356.390921899745;                       !- Volume {m3}

OS:Material,
  {5bdae0bd-4715-4ef3-963a-9edd3d47f6e9}, !- Handle
  asphalt or fiberglass shingles,         !- Name
  Rough,                                  !- Roughness
  0.00635,                                !- Thickness {m}
  0.162714,                               !- Conductivity {W/m-K}
  1121.4,                                 !- Density {kg/m3}
  1465.45,                                !- Specific Heat {J/kg-K}
  0.9,                                    !- Thermal Absorptance
  0.85,                                   !- Solar Absorptance