
OS:Version,
  {256d86b1-da9e-47dc-a1c6-56ec83faacfd}, !- Handle
  3.9.0;                                  !- Version Identifier

OS:SimulationControl,
  {90bd2f57-04fe-4112-93da-d234c6a3668e}, !- Handle
  ,                                       !- Do Zone Sizing Calculation
  ,                                       !- Do System Sizing Calculation
  ,                                       !- Do Plant Sizing Calculation
  No;                                     !- Run Simulation for Sizing Periods

OS:Timestep,
  {c6c8f27e-fe91-4435-9de3-4e576b82164c}, !- Handle
  1;                                      !- Number of Timesteps per Hour

OS:ShadowCalculation,
  {298dc8ed-6811-45b4-943a-f3c9b134a4fa}, !- Handle
  PolygonClipping,                        !- Shading Calculation Method
  ,                                       !- Shading Calculation Update Frequency Method
  20,                                     !- Shading Calculation Update Frequency
  200,                                    !- Maximum Figures in Shadow Overlap Calculations
  ,                                       !- Polygon Clipping Algorithm
  512,                                    !- Pixel Counting Resolution
  ,                                       !- Sky Diffuse Modeling Algorithm
  No,                                     !- Output External Shading Calculation Results
  No,                                     !- Disable Self-Shading Within Shading Zone Groups
  No;                                     !- Disable Self-Shading From Shading Zone Groups to Other Zones

OS:SurfaceConvectionAlgorithm:Outside,
  {95f7b5e5-28d5-47e9-a82c-a024e4db3c83}, !- Handle
  DOE-2;                                  !- Algorithm

OS:SurfaceConvectionAlgorithm:Inside,
  {27c0519a-ab7b-412d-96ca-e0ffaca5727e}, !- Handle
  TARP;                                   !- Algorithm

OS:ZoneCapacitanceMultiplier:ResearchSpecial,
  {0a0c33df-f733-4274-82a6-14dbbd18777c}, !- Handle
  7,                                      !- Temperature Capacity Multiplier
  15,                                     !- Humidity Capacity Multiplier
  ;                                       !- Carbon Dioxide Capacity Multiplier

OS:ConvergenceLimits,
  {995686b1-e80c-4a7a-9d24-e2193b2ba0cd}, !- Handle
  0;                                      !- Minimum System Timestep {minutes}

OS:RunPeriod,
  {bb8dea87-405c-4f35-8296-ffc3c424af98}, !- Handle
  Run Period 1,                           !- Name
  1,                                      !- Begin Month
  1,                                      !- Begin Day of Month
  12,                                     !- End Month
  31,                                     !- End Day of Month
  ,                                       !- Use Weather File Holidays and Special Days
  ,                                       !- Use Weather File Daylight Saving Period
  ,                                       !- Apply Weekend Holiday Rule
  ,                                       !- Use Weather File Rain Indicators
  ,                                       !- Use Weather File Snow Indicators
  ;                                       !- Number of Times Runperiod to be Repeated

OS:PerformancePrecisionTradeoffs,
  {0aea62e1-541c-42d5-8972-ea7a69944f6c}, !- Handle
  ,                                       !- Use Coil Direct Solutions
  CarrollMRT;                             !- Zone Radiant Exchange Algorithm

OS:WeatherFile,
  {adb8464b-2557-4ed2-bbb8-f773eb5ac00f}, !- Handle
  Buffalo Niagara Intl Ap,                !- City
  NY,                                     !- State Province Region
  USA,                                    !- Country
  TMY3,                                   !- Data Source
  725280,                                 !- WMO Number
  42.93,                                  !- Latitude {deg}
  -78.73,                                 !- Longitude {deg}
  -5,                                     !- Time Zone {hr}
  215,                                    !- Elevation {m}
  /Users/nmoore/github/urbanopt-example-geojson-project/example_project/weather/USA_NY_Buffalo-Greater.Buffalo.Intl.AP.725280_TMY3.epw, !- Url
  6B50E0FF,                               !- Checksum
  ,                                       !- Start Date Actual Year
  Sunday;                                 !- Start Day of Week

OS:YearDescription,
  {8c81ce12-210b-4afe-9406-3f1eddfd11fa}, !- Handle
  2007,                                   !- Calendar Year
  ,                                       !- Day of Week for Start Day
  ;                                       !- Is Leap Year

OS:Site,
  {a85f5b56-afe8-4b97-9f4f-9934655a297c}, !- Handle
  Buffalo Niagara Intl Ap_NY,             !- Name
  42.93,                                  !- Latitude {deg}
  -78.73,                                 !- Longitude {deg}
  -5,                                     !- Time Zone {hr}
  215,                                    !- Elevation {m}
  Suburbs,                                !- Terrain
  Yes;                                    !- Keep Site Location Information

OS:RunPeriodControl:DaylightSavingTime,
  {baae3f06-e423-4c35-af7a-a5324bb9c047}, !- Handle
  Mar 12,                                 !- Start Date
  Nov 5;                                  !- End Date

OS:Site:GroundTemperature:Shallow,
  {e91505f8-ae3e-4a99-af91-25d672f2997b}, !- Handle
  4.30207395723828,                       !- January Surface Ground Temperature {C}
  2.29327249652502,                       !- February Surface Ground Temperature {C}
  2.13240047156047,                       !- March Surface Ground Temperature {C}
  3.08567940719286,                       !- April Surface Ground Temperature {C}
  6.91256312497526,                       !- May Surface Ground Temperature {C}
  10.7216195949507,                       !- June Surface Ground Temperature {C}
  14.0238679822574,                       !- July Surface Ground Temperature {C}
  16.1157611184724,                       !- August Surface Ground Temperature {C}
  16.2934789303462,                       !- September Surface Ground Temperature {C}
  14.5920754632847,                       !- October Surface Ground Temperature {C}
  11.374036348653,                        !- November Surface Ground Temperature {C}
  7.68182621661674;                       !- December Surface Ground Temperature {C}

OS:ThermalZone,
  {eab173b2-8aab-4420-ac84-31f68ba87dd5}, !- Handle
  conditioned space,                      !- Name
  1,                                      !- Multiplier
  ,                                       !- Ceiling Height {m}
  692.06373070848,                        !- Volume {m3}
  ,                                       !- Floor Area {m2}
  ,                                       !- Zone Inside Convection Algorithm
  ,                                       !- Zone Outside Convection Algorithm
  ,                                       !- Zone Conditioning Equipment List Name
  {10847da0-f2e2-4018-9e74-75d4d2464d61}, !- Zone Air Inlet Port List
  {88495c7a-bf41-4e40-841b-9fbdd1ceb29a}, !- Zone Air Exhaust Port List
  {ec2662e8-1439-4092-b4ec-538617f350a6}, !- Zone Air Node Name
  {b31d1124-3d55-4208-b684-711a3c12775b}, !- Zone Return Air Port List
  ,                                       !- Primary Daylighting Control Name
  ,                                       !- Fraction of Zone Controlled by Primary Daylighting Control
  ,                                       !- Secondary Daylighting Control Name
  ,                                       !- Fraction of Zone Controlled by Secondary Daylighting Control
  ,                                       !- Illuminance Map Name
  ,                                       !- Group Rendering Name
  {f8bd16c9-ee75-4895-b9d6-7e107b1ca154}, !- Thermostat Name
  No;                                     !- Use Ideal Air Loads

OS:Node,
  {d5f2575b-0512-4aaa-abc9-ac8a336eb31d}, !- Handle
  Node 1,                                 !- Name
  {ec2662e8-1439-4092-b4ec-538617f350a6}, !- Inlet Port
  ;                                       !- Outlet Port

OS:Connection,
  {ec2662e8-1439-4092-b4ec-538617f350a6}, !- Handle
  {eab173b2-8aab-4420-ac84-31f68ba87dd5}, !- Source Object
  11,                                     !- Outlet Port
  {d5f2575b-0512-4aaa-abc9-ac8a336eb31d}, !- Target Object
  2;                                      !- Inlet Port

OS:PortList,
  {10847da0-f2e2-4018-9e74-75d4d2464d61}, !- Handle
  {eab173b2-8aab-4420-ac84-31f68ba87dd5}, !- HVAC Component
  {fa228a1d-097c-4aa7-9271-f6841e2494ba}; !- Port 1

OS:PortList,
  {88495c7a-bf41-4e40-841b-9fbdd1ceb29a}, !- Handle
  {eab173b2-8aab-4420-ac84-31f68ba87dd5}; !- HVAC Component

OS:PortList,
  {b31d1124-3d55-4208-b684-711a3c12775b}, !- Handle
  {eab173b2-8aab-4420-ac84-31f68ba87dd5}, !- HVAC Component
  {6e15ef1d-71b7-432b-b1fb-7464df344309}; !- Port 1

OS:Sizing:Zone,
  {f8fb9688-f478-4888-a0fc-2aa25bbc1f6c}, !- Handle
  {eab173b2-8aab-4420-ac84-31f68ba87dd5}, !- Zone or ZoneList Name
  SupplyAirTemperature,                   !- Zone Cooling Design Supply Air Temperature Input Method
  14,                                     !- Zone Cooling Design Supply Air Temperature {C}
  11.11,                                  !- Zone Cooling Design Supply Air Temperature Difference {deltaC}
  SupplyAirTemperature,                   !- Zone Heating Design Supply Air Temperature Input Method
  40,                                     !- Zone Heating Design Supply Air Temperature {C}
  11.11,                                  !- Zone Heating Design Supply Air Temperature Difference {deltaC}
  0.0085,                                 !- Zone Cooling Design Supply Air Humidity Ratio {kg-H2O/kg-air}
  0.008,                                  !- Zone Heating Design Supply Air Humidity Ratio {kg-H2O/kg-air}
  ,                                       !- Zone Heating Sizing Factor
  ,                                       !- Zone Cooling Sizing Factor
  DesignDay,                              !- Cooling Design Air Flow Method
  ,                                       !- Cooling Design Air Flow Rate {m3/s}
  ,                                       !- Cooling Minimum Air Flow per Zone Floor Area {m3/s-m2}
  ,                                       !- Cooling Minimum Air Flow {m3/s}
  ,                                       !- Cooling Minimum Air Flow Fraction
  DesignDay,                              !- Heating Design Air Flow Method
  ,                                       !- Heating Design Air Flow Rate {m3/s}
  ,                                       !- Heating Maximum Air Flow per Zone Floor Area {m3/s-m2}
  ,                                       !- Heating Maximum Air Flow {m3/s}
  ,                                       !- Heating Maximum Air Flow Fraction
  No,                                     !- Account for Dedicated Outdoor Air System
  NeutralSupplyAir,                       !- Dedicated Outdoor Air System Control Strategy
  autosize,                               !- Dedicated Outdoor Air Low Setpoint Temperature for Design {C}
  autosize,                               !- Dedicated Outdoor Air High Setpoint Temperature for Design {C}
  Sensible Load Only No Latent Load,      !- Zone Load Sizing Method
  HumidityRatioDifference,                !- Zone Latent Cooling Design Supply Air Humidity Ratio Input Method
  ,                                       !- Zone Dehumidification Design Supply Air Humidity Ratio {kgWater/kgDryAir}
  0.005,                                  !- Zone Cooling Design Supply Air Humidity Ratio Difference {kgWater/kgDryAir}
  HumidityRatioDifference,                !- Zone Latent Heating Design Supply Air Humidity Ratio Input Method
  ,                                       !- Zone Humidification Design Supply Air Humidity Ratio {kgWater/kgDryAir}
  0.005,                                  !- Zone Humidification Design Supply Air Humidity Ratio Difference {kgWater/kgDryAir}
  ,                                       !- Zone Humidistat Dehumidification Set Point Schedule Name
  ,                                       !- Zone Humidistat Humidification Set Point Schedule Name
  ,                                       !- Design Zone Air Distribution Effectiveness in Cooling Mode
  ,                                       !- Design Zone Air Distribution Effectiveness in Heating Mode
  ,                                       !- Design Zone Secondary Recirculation Fraction {dimensionless}
  ,                                       !- Design Minimum Zone Ventilation Efficiency {dimensionless}
  Coincident;                             !- Sizing Option

OS:ZoneHVAC:EquipmentList,
  {a0e41749-5065-40a2-a899-24b6470e071b}, !- Handle
  Zone HVAC Equipment List 1,             !- Name
  {eab173b2-8aab-4420-ac84-31f68ba87dd5}, !- Thermal Zone
  ,                                       !- Load Distribution Scheme
  {c6ad9cde-4914-44ae-8953-8406e38d2d72}, !- Zone Equipment 1
  1,                                      !- Zone Equipment Cooling Sequence 1
  1,                                      !- Zone Equipment Heating or No-Load Sequence 1
  {33e1b925-7ef7-4615-b73a-d1e0ab19c7b6}, !- Zone Equipment Sequential Cooling Fraction Schedule Name 1
  {290f1d34-5270-42a5-96a2-6376dad4f18f}; !- Zone Equipment Sequential Heating Fraction Schedule Name 1

OS:AdditionalProperties,
  {b3f304f3-0417-4bc0-81e3-aab6a0e3f37d}, !- Handle
  {eab173b2-8aab-4420-ac84-31f68ba87dd5}, !- Object Name
  ObjectType,                             !- Feature Name 1
  String,                                 !- Feature Data Type 1
  conditioned space;                      !- Feature Value 1

OS:Space,
  {726626b4-39ee-4bab-a911-43649b32e507}, !- Handle
  conditioned space 1,                    !- Name
  ,                                       !- Space Type Name
  ,                                       !- Default Construction Set Name
  ,                                       !- Default Schedule Set Name
  ,                                       !- Direction of Relative North {deg}
  ,                                       !- X Origin {m}
  ,                                       !- Y Origin {m}
  ,                                       !- Z Origin {m}
  ,                                       !- Building Story Name
  {eab173b2-8aab-4420-ac84-31f68ba87dd5}, !- Thermal Zone Name
  ,                                       !- Part of Total Floor Area
  ,                                       !- Design Specification Outdoor Air Object Name
  ,                                       !- Building Unit Name
  692.06373070848;                        !- Volume {m3}

OS:Schedule:Ruleset,
  {1d3faad1-c489-4b35-8927-5f78a871e1b6}, !- Handle
  heating setpoint,                       !- Name
  {e523c882-1ceb-405a-aad0-30f868942fd2}, !- Schedule Type Limits Name
  {d9639505-cd85-46ca-86ac-5d7faf9bce9e}; !- Default Day Schedule Name

OS:Schedule:Day,
  {d9639505-cd85-46ca-86ac-5d7faf9bce9e}, !- Handle
  heating setpoint default day,           !- Name
  {e523c882-1ceb-405a-aad0-30f868942fd2}, !- Schedule Type Limits Name
  ,                                       !- Interpolate to Timestep
  24,                                     !- Hour 1
  0,                                      !- Minute 1
  0;                                      !- Value Until Time 1

OS:Schedule:Rule,
  {84269886-a496-4b78-a726-0056718a8b61}, !- Handle
  heating setpoint allday rule,           !- Name
  {1d3faad1-c489-4b35-8927-5f78a871e1b6}, !- Schedule Ruleset Name
  0,                                      !- Rule Order
  {6c94464f-8f35-420c-99d7-674110a1131b}, !- Day Schedule Name
  Yes,                                    !- Apply Sunday
  Yes,                                    !- Apply Monday
  Yes,                                    !- Apply Tuesday
  Yes,                                    !- Apply Wednesday
  Yes,                                    !- Apply Thursday
  Yes,                                    !- Apply Friday
  Yes,                                    !- Apply Saturday
  DateRange,                              !- Date Specification Type
  1,                                      !- Start Month
  1,                                      !- Start Day
  12,                                     !- End Month
  31;                                     !- End Day

OS:Schedule:Day,
  {6c94464f-8f35-420c-99d7-674110a1131b}, !- Handle
  heating setpoint day,                   !- Name
  {e523c882-1ceb-405a-aad0-30f868942fd2}, !- Schedule Type Limits Name
  ,                                       !- Interpolate to Timestep
  24,                                     !- Hour 1
  0,                                      !- Minute 1
  20;                                     !- Value Until Time 1

OS:Schedule:Ruleset,
  {80d65543-04ad-4411-8dc7-5de4d627b24e}, !- Handle
  cooling setpoint,                       !- Name
  {e523c882-1ceb-405a-aad0-30f868942fd2}, !- Schedule Type Limits Name
  {d269d9fc-b1f9-4398-8db7-836f45bc7a7b}; !- Default Day Schedule Name

OS:Schedule:Day,
  {d269d9fc-b1f9-4398-8db7-836f45bc7a7b}, !- Handle
  cooling setpoint default day,           !- Name
  {e523c882-1ceb-405a-aad0-30f868942fd2}, !- Schedule Type Limits Name
  ,                                       !- Interpolate to Timestep
  24,                                     !- Hour 1
  0,                                      !- Minute 1
  0;                                      !- Value Until Time 1

OS:Schedule:Rule,
  {d18ee65f-0c72-4643-a8ff-302048de6eff}, !- Handle
  cooling setpoint allday rule,           !- Name
  {80d65543-04ad-4411-8dc7-5de4d627b24e}, !- Schedule Ruleset Name
  0,                                      !- Rule Order
  {f29e56a6-eec3-4a99-ade6-a9c09b87c8a0}, !- Day Schedule Name
  Yes,                                    !- Apply Sunday
  Yes,                                    !- Apply Monday
  Yes,                                    !- Apply Tuesday
  Yes,                                    !- Apply Wednesday
  Yes,                                    !- Apply Thursday
  Yes,                                    !- Apply Friday
  Yes,                                    !- Apply Saturday
  DateRange,                              !- Date Specification Type
  1,                                      !- Start Month
  1,                                      !- Start Day
  12,                                     !- End Month
  31;                                     !- End Day

OS:Schedule:Day,
  {f29e56a6-eec3-4a99-ade6-a9c09b87c8a0}, !- Handle
  cooling setpoint day,                   !- Name
  {e523c882-1ceb-405a-aad0-30f868942fd2}, !- Schedule Type Limits Name
  ,                                       !- Interpolate to Timestep
  24,                                     !- Hour 1
  0,                                      !- Minute 1
  25.5555555555556;                       !- Value Until Time 1

OS:ThermostatSetpoint:DualSetpoint,
  {f8bd16c9-ee75-4895-b9d6-7e107b1ca154}, !- Handle
  conditioned space temperature setpoint, !- Name
  {1d3faad1-c489-4b35-8927-5f78a871e1b6}, !- Heating Setpoint Temperature Schedule Name
  {80d65543-04ad-4411-8dc7-5de4d627b24e}, !- Cooling Setpoint Temperature Schedule Name
  0;                                      !- Temperature Difference Between Cutout And Setpoint {deltaC}

OS:ScheduleTypeLimits,
  {e523c882-1ceb-405a-aad0-30f868942fd2}, !- Handle
  Temperature,                            !- Name
  ,                                       !- Lower Limit Value
  ,                                       !- Upper Limit Value
  Continuous,                             !- Numeric Type
  Temperature;                            !- Unit Type

OS:Surface,
  {dd626f44-c46a-4787-9470-3bff2709ee28}, !- Handle
  Roof1,                                  !- Name
  RoofCeiling,                            !- Surface Type
  {5611a44c-9533-4c76-af6b-8e64a1863374}, !- Construction Name
  {1ab7ad9d-0e28-4d22-9e23-ea88d0b36130}, !- Space Name
  Outdoors,                               !- Outside Boundary Condition
  ,                                       !- Outside Boundary Condition Object
  SunExposed,                             !- Sun Exposure
  WindExposed,                            !- Wind Exposure
  ,                                       !- View Factor to Ground
  ,                                       !- Number of Vertices
  9.8030170292795, 22.3990406761293, 3.048, !- X,Y,Z Vertex 1 {m}
  9.8030170292795, 11.1328146279089, 8.6811130241102, !- X,Y,Z Vertex 2 {m}
  22.3990406761293, 11.1328146279089, 8.6811130241102, !- X,Y,Z Vertex 3 {m}
  22.3990406761293, 22.3990406761293, 3.048; !- X,Y,Z Vertex 4 {m}

OS:AdditionalProperties,
  {ef322ff6-c765-4078-a892-b5299612f772}, !- Handle
  {dd626f44-c46a-4787-9470-3bff2709ee28}, !- Object Name
  Length,                                 !- Feature Name 1
  Double,                                 !- Feature Data Type 1
  41.325536899113608,                     !- Feature Value 1
  Width,                                  !- Feature Name 2
  Double,                                 !- Feature Data Type 2
  41.325536899113601,                     !- Feature Value 2
  Azimuth,                                !- Feature Name 3
  Integer,                                !- Feature Data Type 3
  0,                                      !- Feature Value 3
  Tilt,                                   !- Feature Name 4
  Double,                                 !- Feature Data Type 4
  0.5,                                    !- Feature Value 4
  SurfaceType,                            !- Feature Name 5
  String,                                 !- Feature Data Type 5
  Roof;                                   !- Feature Value 5

OS:ThermalZone,
  {f1fff57c-647e-4523-ae6e-aa380ebe7083}, !- Handle
  attic - vented,                         !- Name
  1,                                      !- Multiplier
  ,                                       !- Ceiling Height {m}
  356.389957095237,                       !- Volume {m3}
  ,                                       !- Floor Area {m2}
  ,                                       !- Zone Inside Convection Algorithm
  ,                                       !- Zone Outside Convection Algorithm
  ,                                       !- Zone Conditioning Equipment List Name
  {37d4b364-342d-47fc-9386-b77755818b1f}, !- Zone Air Inlet Port List
  {c4a39dfa-031b-40c9-919f-d9cf3e28d845}, !- Zone Air Exhaust Port List
  {8134822f-14ab-4dfa-a30e-b14bc7b9858c}, !- Zone Air Node Name
  {78d28e58-8f62-49d8-9d84-5d0989696dca}, !- Zone Return Air Port List
  ,                                       !- Primary Daylighting Control Name
  ,                                       !- Fraction of Zone Controlled by Primary Daylighting Control
  ,                                       !- Secondary Daylighting Control Name
  ,                                       !- Fraction of Zone Controlled by Secondary Daylighting Control
  ,                                       !- Illuminance Map Name
  ,                                       !- Group Rendering Name
  ,                                       !- Thermostat Name
  No;                                     !- Use Ideal Air Loads

OS:Node,
  {a3b97322-e87a-45ff-94f5-6ae3c2e27b7a}, !- Handle
  Node 2,                                 !- Name
  {8134822f-14ab-4dfa-a30e-b14bc7b9858c}, !- Inlet Port
  ;                                       !- Outlet Port

OS:Connection,
  {8134822f-14ab-4dfa-a30e-b14bc7b9858c}, !- Handle
  {f1fff57c-647e-4523-ae6e-aa380ebe7083}, !- Source Object
  11,                                     !- Outlet Port
  {a3b97322-e87a-45ff-94f5-6ae3c2e27b7a}, !- Target Object
  2;                                      !- Inlet Port

OS:PortList,
  {37d4b364-342d-47fc-9386-b77755818b1f}, !- Handle
  {f1fff57c-647e-4523-ae6e-aa380ebe7083}; !- HVAC Component

OS:PortList,
  {c4a39dfa-031b-40c9-919f-d9cf3e28d845}, !- Handle
  {f1fff57c-647e-4523-ae6e-aa380ebe7083}; !- HVAC Component

OS:PortList,
  {78d28e58-8f62-49d8-9d84-5d0989696dca}, !- Handle
  {f1fff57c-647e-4523-ae6e-aa380ebe7083}; !- HVAC Component

OS:Sizing:Zone,
  {00a41672-3175-49f5-b1eb-659eb72f3af6}, !- Handle
  {f1fff57c-647e-4523-ae6e-aa380ebe7083}, !- Zone or ZoneList Name
  SupplyAirTemperature,                   !- Zone Cooling Design Supply Air Temperature Input Method
  14,                                     !- Zone Cooling Design Supply Air Temperature {C}
  11.11,                                  !- Zone Cooling Design Supply Air Temperature Difference {deltaC}
  SupplyAirTemperature,                   !- Zone Heating Design Supply Air Temperature Input Method
  40,                                     !- Zone Heating Design Supply Air Temperature {C}
  11.11,                                  !- Zone Heating Design Supply Air Temperature Difference {deltaC}
  0.0085,                                 !- Zone Cooling Design Supply Air Humidity Ratio {kg-H2O/kg-air}
  0.008,                                  !- Zone Heating Design Supply Air Humidity Ratio {kg-H2O/kg-air}
  ,                                       !- Zone Heating Sizing Factor
  ,                                       !- Zone Cooling Sizing Factor
  DesignDay,                              !- Cooling Design Air Flow Method
  ,                                       !- Cooling Design Air Flow Rate {m3/s}
  ,                                       !- Cooling Minimum Air Flow per Zone Floor Area {m3/s-m2}
  ,                                       !- Cooling Minimum Air Flow {m3/s}
  ,                                       !- Cooling Minimum Air Flow Fraction
  DesignDay,                              !- Heating Design Air Flow Method
  ,                                       !- Heating Design Air Flow Rate {m3/s}
  ,                                       !- Heating Maximum Air Flow per Zone Floor Area {m3/s-m2}
  ,                                       !- Heating Maximum Air Flow {m3/s}
  ,                                       !- Heating Maximum Air Flow Fraction
  No,                                     !- Account for Dedicated Outdoor Air System
  NeutralSupplyAir,                       !- Dedicated Outdoor Air System Control Strategy
  autosize,                               !- Dedicated Outdoor Air Low Setpoint Temperature for Design {C}
  autosize,                               !- Dedicated Outdoor Air High Setpoint Temperature for Design {C}
  Sensible Load Only No Latent Load,      !- Zone Load Sizing Method
  HumidityRatioDifference,                !- Zone Latent Cooling Design Supply Air Humidity Ratio Input Method
  ,                                       !- Zone Dehumidification Design Supply Air Humidity Ratio {kgWater/kgDryAir}
  0.005,                                  !- Zone Cooling Design Supply Air Humidity Ratio Difference {kgWater/kgDryAir}
  HumidityRatioDifference,                !- Zone Latent Heating Design Supply Air Humidity Ratio Input Method
  ,                                       !- Zone Humidification Design Supply Air Humidity Ratio {kgWater/kgDryAir}
  0.005,                                  !- Zone Humidification Design Supply Air Humidity Ratio Difference {kgWater/kgDryAir}
  ,                                       !- Zone Humidistat Dehumidification Set Point Schedule Name
  ,                                       !- Zone Humidistat Humidification Set Point Schedule Name
  ,                                       !- Design Zone Air Distribution Effectiveness in Cooling Mode
  ,                                       !- Design Zone Air Distribution Effectiveness in Heating Mode
  ,                                       !- Design Zone Secondary Recirculation Fraction {dimensionless}
  ,                                       !- Design Minimum Zone Ventilation Efficiency {dimensionless}
  Coincident;                             !- Sizing Option

OS:ZoneHVAC:EquipmentList,
  {31ca0dfd-0dea-4c9d-94aa-7be300704bb2}, !- Handle
  Zone HVAC Equipment List 2,             !- Name
  {f1fff57c-647e-4523-ae6e-aa380ebe7083}; !- Thermal Zone

OS:AdditionalProperties,
  {a3dfced5-6247-4ba1-b211-929c33eeecd2}, !- Handle
  {f1fff57c-647e-4523-ae6e-aa380ebe7083}, !- Object Name
  ObjectType,                             !- Feature Name 1
  String,                                 !- Feature Data Type 1
  attic - vented;                         !- Feature Value 1

OS:Space,
  {1ab7ad9d-0e28-4d22-9e23-ea88d0b36130}, !- Handle
  attic - vented 1,                       !- Name
  ,                                       !- Space Type Name
  ,                                       !- Default Construction Set Name
  ,                                       !- Default Schedule Set Name
  ,                                       !- Direction of Relative North {deg}
  ,                                       !- X Origin {m}
  ,                                       !- Y Origin {m}
  ,                                       !- Z Origin {m}
  ,                                       !- Building Story Name
  {f1fff57c-647e-4523-ae6e-aa380ebe7083}, !- Thermal Zone Name
  ,                                       !- Part of Total Floor Area
  ,                                       !- Design Specification Outdoor Air Object Name
  ,                                       !- Building Unit Name
  356.389957095237;                       !- Volume {m3}

OS:Material,
  {d9c49987-7c1f-4838-82e5-aa399edf6638}, !- Handle
  asphalt or fiberglass shingles,         !- Name
  Rough,                                  !- Roughness
  0.00635,                                !- Thickness {m}
  0.162714,                               !- Conductivity {W/m-K}
  1121.4,                                 !- Density {kg/m3}
  1465.45,                                !- Specific Heat {J/kg-K}
  0.9,                                    !- Thermal Absorptance
  0.85,                                   !- Solar Absorptance