
OS:Version,
  {951f5ba8-0bcb-446c-8ec5-95b62981b438}, !- Handle
  3.9.0;                                  !- Version Identifier

OS:SimulationControl,
  {1d152da8-5f96-4076-a265-f9ab8bf1205a}, !- Handle
  ,                                       !- Do Zone Sizing Calculation
  ,                                       !- Do System Sizing Calculation
  ,                                       !- Do Plant Sizing Calculation
  No;                                     !- Run Simulation for Sizing Periods

OS:Timestep,
  {329b4a2e-b025-42e0-8043-c2a6dce271a5}, !- Handle
  1;                                      !- Number of Timesteps per Hour

OS:ShadowCalculation,
  {f5b9a816-4103-410e-a2d2-0fecfb8e9764}, !- Handle
  PolygonClipping,                        !- Shading Calculation Method
  ,                                       !- Shading Calculation Update Frequency Method
  20,                                     !- Shading Calculation Update Frequency
  200,                                    !- Maximum Figures in Shadow Overlap Calculations
  ,                                       !- Polygon Clipping Algorithm
  512,                                    !- Pixel Counting Resolution
  ,                                       !- Sky Diffuse Modeling Algorithm
  No,                                     !- Output External Shading Calculation Results
  No,                                     !- Disable Self-Shading Within Shading Zone Groups
  No;                                     !- Disable Self-Shading From Shading Zone Groups to Other Zones

OS:SurfaceConvectionAlgorithm:Outside,
  {90a4823c-573b-4722-8238-c925652247f8}, !- Handle
  DOE-2;                                  !- Algorithm

OS:SurfaceConvectionAlgorithm:Inside,
  {5d14a7ff-4ad4-4f12-92bf-83b588b902d8}, !- Handle
  TARP;                                   !- Algorithm

OS:ZoneCapacitanceMultiplier:ResearchSpecial,
  {0db26309-9673-4139-80e9-dc7a01d83970}, !- Handle
  7,                                      !- Temperature Capacity Multiplier
  15,                                     !- Humidity Capacity Multiplier
  ;                                       !- Carbon Dioxide Capacity Multiplier

OS:ConvergenceLimits,
  {5848b182-c907-47be-8a60-4968b9cdc86d}, !- Handle
  0;                                      !- Minimum System Timestep {minutes}

OS:RunPeriod,
  {11b77cfa-0130-4aed-a391-4b9303c3a230}, !- Handle
  Run Period 1,                           !- Name
  1,                                      !- Begin Month
  1,                                      !- Begin Day of Month
  12,                                     !- End Month
  31,                                     !- End Day of Month
  ,                                       !- Use Weather File Holidays and Special Days
  ,                                       !- Use Weather File Daylight Saving Period
  ,                                       !- Apply Weekend Holiday Rule
  ,                                       !- Use Weather File Rain Indicators
  ,                                       !- Use Weather File Snow Indicators
  ;                                       !- Number of Times Runperiod to be Repeated

OS:PerformancePrecisionTradeoffs,
  {c8516439-ad32-4d76-a1ef-2ef0033ecac9}, !- Handle
  ,                                       !- Use Coil Direct Solutions
  CarrollMRT;                             !- Zone Radiant Exchange Algorithm

OS:WeatherFile,
  {133ae7f9-a2c4-4b62-a297-2bda25a7518e}, !- Handle
  Buffalo Niagara Intl Ap,                !- City
  NY,                                     !- State Province Region
  USA,                                    !- Country
  TMY3,                                   !- Data Source
  725280,                                 !- WMO Number
  42.93,                                  !- Latitude {deg}
  -78.73,                                 !- Longitude {deg}
  -5,                                     !- Time Zone {hr}
  215,                                    !- Elevation {m}
  /Users/nmoore/github/urbanopt-example-geojson-project/example_project/weather/USA_NY_Buffalo-Greater.Buffalo.Intl.AP.725280_TMY3.epw, !- Url
  6B50E0FF,                               !- Checksum
  ,                                       !- Start Date Actual Year
  Sunday;                                 !- Start Day of Week

OS:YearDescription,
  {b96737af-5c8b-4403-837e-68370105710a}, !- Handle
  2007,                                   !- Calendar Year
  ,                                       !- Day of Week for Start Day
  ;                                       !- Is Leap Year

OS:Site,
  {2a7733d8-3927-41c2-91a8-9c3322d943cb}, !- Handle
  Buffalo Niagara Intl Ap_NY,             !- Name
  42.93,                                  !- Latitude {deg}
  -78.73,                                 !- Longitude {deg}
  -5,                                     !- Time Zone {hr}
  215,                                    !- Elevation {m}
  Suburbs,                                !- Terrain
  Yes;                                    !- Keep Site Location Information

OS:RunPeriodControl:DaylightSavingTime,
  {ba07c2b6-a252-480a-90b4-796fa774f0d9}, !- Handle
  Mar 12,                                 !- Start Date
  Nov 5;                                  !- End Date

OS:Site:GroundTemperature:Shallow,
  {e282c8bc-2342-4c45-8477-5320f2fa2bf0}, !- Handle
  4.30207395723828,                       !- January Surface Ground Temperature {C}
  2.29327249652502,                       !- February Surface Ground Temperature {C}
  2.13240047156047,                       !- March Surface Ground Temperature {C}
  3.08567940719286,                       !- April Surface Ground Temperature {C}
  6.91256312497526,                       !- May Surface Ground Temperature {C}
  10.7216195949507,                       !- June Surface Ground Temperature {C}
  14.0238679822574,                       !- July Surface Ground Temperature {C}
  16.1157611184724,                       !- August Surface Ground Temperature {C}
  16.2934789303462,                       !- September Surface Ground Temperature {C}
  14.5920754632847,                       !- October Surface Ground Temperature {C}
  11.374036348653,                        !- November Surface Ground Temperature {C}
  7.68182621661674;                       !- December Surface Ground Temperature {C}

OS:ThermalZone,
  {7120ff54-bcf4-4953-becb-6aa8d5821263}, !- Handle
  conditioned space,                      !- Name
  1,                                      !- Multiplier
  ,                                       !- Ceiling Height {m}
  692.06373070848,                        !- Volume {m3}
  ,                                       !- Floor Area {m2}
  ,                                       !- Zone Inside Convection Algorithm
  ,                                       !- Zone Outside Convection Algorithm
  ,                                       !- Zone Conditioning Equipment List Name
  {5217ef23-ce81-42a6-9f28-ea018a9d5344}, !- Zone Air Inlet Port List
  {ccde5d87-5092-43e5-adf1-e1664f6ae17e}, !- Zone Air Exhaust Port List
  {3b73553a-9d8c-4803-965c-220d659048fb}, !- Zone Air Node Name
  {9cbd828a-116b-4dd6-a2dc-73cbe214993e}, !- Zone Return Air Port List
  ,                                       !- Primary Daylighting Control Name
  ,                                       !- Fraction of Zone Controlled by Primary Daylighting Control
  ,                                       !- Secondary Daylighting Control Name
  ,                                       !- Fraction of Zone Controlled by Secondary Daylighting Control
  ,                                       !- Illuminance Map Name
  ,                                       !- Group Rendering Name
  {5e53210e-5a4b-4416-a614-ee62fc19dc2d}, !- Thermostat Name
  No;                                     !- Use Ideal Air Loads

OS:Node,
  {476cfca4-4d9b-4212-abeb-09b52d08e6dc}, !- Handle
  Node 1,                                 !- Name
  {3b73553a-9d8c-4803-965c-220d659048fb}, !- Inlet Port
  ;                                       !- Outlet Port

OS:Connection,
  {3b73553a-9d8c-4803-965c-220d659048fb}, !- Handle
  {7120ff54-bcf4-4953-becb-6aa8d5821263}, !- Source Object
  11,                                     !- Outlet Port
  {476cfca4-4d9b-4212-abeb-09b52d08e6dc}, !- Target Object
  2;                                      !- Inlet Port

OS:PortList,
  {5217ef23-ce81-42a6-9f28-ea018a9d5344}, !- Handle
  {7120ff54-bcf4-4953-becb-6aa8d5821263}, !- HVAC Component
  {6914f275-31d4-4649-bdc9-b0e0b1729fff}; !- Port 1

OS:PortList,
  {ccde5d87-5092-43e5-adf1-e1664f6ae17e}, !- Handle
  {7120ff54-bcf4-4953-becb-6aa8d5821263}; !- HVAC Component

OS:PortList,
  {9cbd828a-116b-4dd6-a2dc-73cbe214993e}, !- Handle
  {7120ff54-bcf4-4953-becb-6aa8d5821263}, !- HVAC Component
  {bc6f1d6a-5c49-4dda-bd55-1d7dcb843168}; !- Port 1

OS:Sizing:Zone,
  {8151e1e1-dc90-4221-84ab-a438bd0cb46c}, !- Handle
  {7120ff54-bcf4-4953-becb-6aa8d5821263}, !- Zone or ZoneList Name
  SupplyAirTemperature,                   !- Zone Cooling Design Supply Air Temperature Input Method
  14,                                     !- Zone Cooling Design Supply Air Temperature {C}
  11.11,                                  !- Zone Cooling Design Supply Air Temperature Difference {deltaC}
  SupplyAirTemperature,                   !- Zone Heating Design Supply Air Temperature Input Method
  40,                                     !- Zone Heating Design Supply Air Temperature {C}
  11.11,                                  !- Zone Heating Design Supply Air Temperature Difference {deltaC}
  0.0085,                                 !- Zone Cooling Design Supply Air Humidity Ratio {kg-H2O/kg-air}
  0.008,                                  !- Zone Heating Design Supply Air Humidity Ratio {kg-H2O/kg-air}
  ,                                       !- Zone Heating Sizing Factor
  ,                                       !- Zone Cooling Sizing Factor
  DesignDay,                              !- Cooling Design Air Flow Method
  ,                                       !- Cooling Design Air Flow Rate {m3/s}
  ,                                       !- Cooling Minimum Air Flow per Zone Floor Area {m3/s-m2}
  ,                                       !- Cooling Minimum Air Flow {m3/s}
  ,                                       !- Cooling Minimum Air Flow Fraction
  DesignDay,                              !- Heating Design Air Flow Method
  ,                                       !- Heating Design Air Flow Rate {m3/s}
  ,                                       !- Heating Maximum Air Flow per Zone Floor Area {m3/s-m2}
  ,                                       !- Heating Maximum Air Flow {m3/s}
  ,                                       !- Heating Maximum Air Flow Fraction
  No,                                     !- Account for Dedicated Outdoor Air System
  NeutralSupplyAir,                       !- Dedicated Outdoor Air System Control Strategy
  autosize,                               !- Dedicated Outdoor Air Low Setpoint Temperature for Design {C}
  autosize,                               !- Dedicated Outdoor Air High Setpoint Temperature for Design {C}
  Sensible Load Only No Latent Load,      !- Zone Load Sizing Method
  HumidityRatioDifference,                !- Zone Latent Cooling Design Supply Air Humidity Ratio Input Method
  ,                                       !- Zone Dehumidification Design Supply Air Humidity Ratio {kgWater/kgDryAir}
  0.005,                                  !- Zone Cooling Design Supply Air Humidity Ratio Difference {kgWater/kgDryAir}
  HumidityRatioDifference,                !- Zone Latent Heating Design Supply Air Humidity Ratio Input Method
  ,                                       !- Zone Humidification Design Supply Air Humidity Ratio {kgWater/kgDryAir}
  0.005,                                  !- Zone Humidification Design Supply Air Humidity Ratio Difference {kgWater/kgDryAir}
  ,                                       !- Zone Humidistat Dehumidification Set Point Schedule Name
  ,                                       !- Zone Humidistat Humidification Set Point Schedule Name
  ,                                       !- Design Zone Air Distribution Effectiveness in Cooling Mode
  ,                                       !- Design Zone Air Distribution Effectiveness in Heating Mode
  ,                                       !- Design Zone Secondary Recirculation Fraction {dimensionless}
  ,                                       !- Design Minimum Zone Ventilation Efficiency {dimensionless}
  Coincident;                             !- Sizing Option

OS:ZoneHVAC:EquipmentList,
  {97e50819-f9bf-43c0-9442-6495b33669a8}, !- Handle
  Zone HVAC Equipment List 1,             !- Name
  {7120ff54-bcf4-4953-becb-6aa8d5821263}, !- Thermal Zone
  ,                                       !- Load Distribution Scheme
  {e7ef3994-ccc7-49b1-8309-f618f5badf32}, !- Zone Equipment 1
  1,                                      !- Zone Equipment Cooling Sequence 1
  1,                                      !- Zone Equipment Heating or No-Load Sequence 1
  {20a3a2fd-5b5c-44fd-9964-c7fc7aca48fc}, !- Zone Equipment Sequential Cooling Fraction Schedule Name 1
  {3230a59e-3feb-456d-98a7-7c819d216d79}; !- Zone Equipment Sequential Heating Fraction Schedule Name 1

OS:AdditionalProperties,
  {1d54cc70-4a85-4106-8fb9-4832317cb74c}, !- Handle
  {7120ff54-bcf4-4953-becb-6aa8d5821263}, !- Object Name
  ObjectType,                             !- Feature Name 1
  String,                                 !- Feature Data Type 1
  conditioned space;                      !- Feature Value 1

OS:Space,
  {b50f3e4d-ac45-451e-8f13-3d766c0336ae}, !- Handle
  conditioned space 1,                    !- Name
  ,                                       !- Space Type Name
  ,                                       !- Default Construction Set Name
  ,                                       !- Default Schedule Set Name
  ,                                       !- Direction of Relative North {deg}
  ,                                       !- X Origin {m}
  ,                                       !- Y Origin {m}
  ,                                       !- Z Origin {m}
  ,                                       !- Building Story Name
  {7120ff54-bcf4-4953-becb-6aa8d5821263}, !- Thermal Zone Name
  ,                                       !- Part of Total Floor Area
  ,                                       !- Design Specification Outdoor Air Object Name
  ,                                       !- Building Unit Name
  692.06373070848;                        !- Volume {m3}

OS:Schedule:Ruleset,
  {ef47d098-483e-4d7d-9dc8-bc921779feb3}, !- Handle
  heating setpoint,                       !- Name
  {632ed148-9fd9-4388-b607-c3689a7742b0}, !- Schedule Type Limits Name
  {1c71aec6-d47a-4e63-96b6-1ed8d2e151dd}; !- Default Day Schedule Name

OS:Schedule:Day,
  {1c71aec6-d47a-4e63-96b6-1ed8d2e151dd}, !- Handle
  heating setpoint default day,           !- Name
  {632ed148-9fd9-4388-b607-c3689a7742b0}, !- Schedule Type Limits Name
  ,                                       !- Interpolate to Timestep
  24,                                     !- Hour 1
  0,                                      !- Minute 1
  0;                                      !- Value Until Time 1

OS:Schedule:Rule,
  {2dfd0ef8-e655-4e06-9106-aba527d7f081}, !- Handle
  heating setpoint allday rule,           !- Name
  {ef47d098-483e-4d7d-9dc8-bc921779feb3}, !- Schedule Ruleset Name
  0,                                      !- Rule Order
  {019fbc89-b50d-4370-b567-4d373d2ee17f}, !- Day Schedule Name
  Yes,                                    !- Apply Sunday
  Yes,                                    !- Apply Monday
  Yes,                                    !- Apply Tuesday
  Yes,                                    !- Apply Wednesday
  Yes,                                    !- Apply Thursday
  Yes,                                    !- Apply Friday
  Yes,                                    !- Apply Saturday
  DateRange,                              !- Date Specification Type
  1,                                      !- Start Month
  1,                                      !- Start Day
  12,                                     !- End Month
  31;                                     !- End Day

OS:Schedule:Day,
  {019fbc89-b50d-4370-b567-4d373d2ee17f}, !- Handle
  heating setpoint day,                   !- Name
  {632ed148-9fd9-4388-b607-c3689a7742b0}, !- Schedule Type Limits Name
  ,                                       !- Interpolate to Timestep
  24,                                     !- Hour 1
  0,                                      !- Minute 1
  20;                                     !- Value Until Time 1

OS:Schedule:Ruleset,
  {af554ced-6f44-4e11-a42d-91f16627595a}, !- Handle
  cooling setpoint,                       !- Name
  {632ed148-9fd9-4388-b607-c3689a7742b0}, !- Schedule Type Limits Name
  {68e7e0e1-facc-4747-80f8-e35105f7a542}; !- Default Day Schedule Name

OS:Schedule:Day,
  {68e7e0e1-facc-4747-80f8-e35105f7a542}, !- Handle
  cooling setpoint default day,           !- Name
  {632ed148-9fd9-4388-b607-c3689a7742b0}, !- Schedule Type Limits Name
  ,                                       !- Interpolate to Timestep
  24,                                     !- Hour 1
  0,                                      !- Minute 1
  0;                                      !- Value Until Time 1

OS:Schedule:Rule,
  {9eb61d8c-5be4-4878-8745-3fdc4fb85bfa}, !- Handle
  cooling setpoint allday rule,           !- Name
  {af554ced-6f44-4e11-a42d-91f16627595a}, !- Schedule Ruleset Name
  0,                                      !- Rule Order
  {990b8eb9-eb53-4c2c-a230-68e5ced28309}, !- Day Schedule Name
  Yes,                                    !- Apply Sunday
  Yes,                                    !- Apply Monday
  Yes,                                    !- Apply Tuesday
  Yes,                                    !- Apply Wednesday
  Yes,                                    !- Apply Thursday
  Yes,                                    !- Apply Friday
  Yes,                                    !- Apply Saturday
  DateRange,                              !- Date Specification Type
  1,                                      !- Start Month
  1,                                      !- Start Day
  12,                                     !- End Month
  31;                                     !- End Day

OS:Schedule:Day,
  {990b8eb9-eb53-4c2c-a230-68e5ced28309}, !- Handle
  cooling setpoint day,                   !- Name
  {632ed148-9fd9-4388-b607-c3689a7742b0}, !- Schedule Type Limits Name
  ,                                       !- Interpolate to Timestep
  24,                                     !- Hour 1
  0,                                      !- Minute 1
  25.5555555555556;                       !- Value Until Time 1

OS:ThermostatSetpoint:DualSetpoint,
  {5e53210e-5a4b-4416-a614-ee62fc19dc2d}, !- Handle
  conditioned space temperature setpoint, !- Name
  {ef47d098-483e-4d7d-9dc8-bc921779feb3}, !- Heating Setpoint Temperature Schedule Name
  {af554ced-6f44-4e11-a42d-91f16627595a}, !- Cooling Setpoint Temperature Schedule Name
  0;                                      !- Temperature Difference Between Cutout And Setpoint {deltaC}

OS:ScheduleTypeLimits,
  {632ed148-9fd9-4388-b607-c3689a7742b0}, !- Handle
  Temperature,                            !- Name
  ,                                       !- Lower Limit Value
  ,                                       !- Upper Limit Value
  Continuous,                             !- Numeric Type
  Temperature;                            !- Unit Type

OS:Surface,
  {a3dd9b93-bf45-48fc-af8b-70e60fdf3b8c}, !- Handle
  Roof1,                                  !- Name
  RoofCeiling,                            !- Surface Type
  {c86f4036-c042-4c75-a5f2-fd0b3fa617b3}, !- Construction Name
  {7272047c-ec45-4658-ba43-ab1e965702f3}, !- Space Name
  Outdoors,                               !- Outside Boundary Condition
  ,                                       !- Outside Boundary Condition Object
  SunExposed,                             !- Sun Exposure
  WindExposed,                            !- Wind Exposure
  ,                                       !- View Factor to Ground
  ,                                       !- Number of Vertices
  -19.6245848849634, 50.7456691618865, 2.4384, !- X,Y,Z Vertex 1 {m}
  -19.6245848849634, 39.4794431136661, 8.0715130241102, !- X,Y,Z Vertex 2 {m}
  -7.02856123811356, 39.4794431136661, 8.0715130241102, !- X,Y,Z Vertex 3 {m}
  -7.02856123811356, 50.7456691618865, 2.4384; !- X,Y,Z Vertex 4 {m}

OS:AdditionalProperties,
  {47f69634-7940-4712-b848-909fc29e9edb}, !- Handle
  {a3dd9b93-bf45-48fc-af8b-70e60fdf3b8c}, !- Object Name
  Length,                                 !- Feature Name 1
  Double,                                 !- Feature Data Type 1
  41.325536899113608,                     !- Feature Value 1
  Width,                                  !- Feature Name 2
  Double,                                 !- Feature Data Type 2
  41.325536899113601,                     !- Feature Value 2
  Azimuth,                                !- Feature Name 3
  Integer,                                !- Feature Data Type 3
  0,                                      !- Feature Value 3
  Tilt,                                   !- Feature Name 4
  Double,                                 !- Feature Data Type 4
  0.5,                                    !- Feature Value 4
  SurfaceType,                            !- Feature Name 5
  String,                                 !- Feature Data Type 5
  Roof;                                   !- Feature Value 5

OS:ThermalZone,
  {8dd8510e-66b0-4cfe-a3d2-24cc97d9515b}, !- Handle
  attic - vented,                         !- Name
  1,                                      !- Multiplier
  ,                                       !- Ceiling Height {m}
  443.601251426534,                       !- Volume {m3}
  ,                                       !- Floor Area {m2}
  ,                                       !- Zone Inside Convection Algorithm
  ,                                       !- Zone Outside Convection Algorithm
  ,                                       !- Zone Conditioning Equipment List Name
  {d9006896-44d6-40aa-9ca8-e9b9ef6e7fe6}, !- Zone Air Inlet Port List
  {1afba64b-a7a9-455c-a1ef-89a6b9f6d5f8}, !- Zone Air Exhaust Port List
  {9853c029-d082-4af6-b4c0-06006b0c52c0}, !- Zone Air Node Name
  {05da668d-08b1-48b7-b9b6-d211b1f6aa0d}, !- Zone Return Air Port List
  ,                                       !- Primary Daylighting Control Name
  ,                                       !- Fraction of Zone Controlled by Primary Daylighting Control
  ,                                       !- Secondary Daylighting Control Name
  ,                                       !- Fraction of Zone Controlled by Secondary Daylighting Control
  ,                                       !- Illuminance Map Name
  ,                                       !- Group Rendering Name
  ,                                       !- Thermostat Name
  No;                                     !- Use Ideal Air Loads

OS:Node,
  {d584b22e-9460-4daf-af3f-2944c0eb84c9}, !- Handle
  Node 2,                                 !- Name
  {9853c029-d082-4af6-b4c0-06006b0c52c0}, !- Inlet Port
  ;                                       !- Outlet Port

OS:Connection,
  {9853c029-d082-4af6-b4c0-06006b0c52c0}, !- Handle
  {8dd8510e-66b0-4cfe-a3d2-24cc97d9515b}, !- Source Object
  11,                                     !- Outlet Port
  {d584b22e-9460-4daf-af3f-2944c0eb84c9}, !- Target Object
  2;                                      !- Inlet Port

OS:PortList,
  {d9006896-44d6-40aa-9ca8-e9b9ef6e7fe6}, !- Handle
  {8dd8510e-66b0-4cfe-a3d2-24cc97d9515b}; !- HVAC Component

OS:PortList,
  {1afba64b-a7a9-455c-a1ef-89a6b9f6d5f8}, !- Handle
  {8dd8510e-66b0-4cfe-a3d2-24cc97d9515b}; !- HVAC Component

OS:PortList,
  {05da668d-08b1-48b7-b9b6-d211b1f6aa0d}, !- Handle
  {8dd8510e-66b0-4cfe-a3d2-24cc97d9515b}; !- HVAC Component

OS:Sizing:Zone,
  {38f6b3a1-1ff6-44f8-851d-aebab085d95e}, !- Handle
  {8dd8510e-66b0-4cfe-a3d2-24cc97d9515b}, !- Zone or ZoneList Name
  SupplyAirTemperature,                   !- Zone Cooling Design Supply Air Temperature Input Method
  14,                                     !- Zone Cooling Design Supply Air Temperature {C}
  11.11,                                  !- Zone Cooling Design Supply Air Temperature Difference {deltaC}
  SupplyAirTemperature,                   !- Zone Heating Design Supply Air Temperature Input Method
  40,                                     !- Zone Heating Design Supply Air Temperature {C}
  11.11,                                  !- Zone Heating Design Supply Air Temperature Difference {deltaC}
  0.0085,                                 !- Zone Cooling Design Supply Air Humidity Ratio {kg-H2O/kg-air}
  0.008,                                  !- Zone Heating Design Supply Air Humidity Ratio {kg-H2O/kg-air}
  ,                                       !- Zone Heating Sizing Factor
  ,                                       !- Zone Cooling Sizing Factor
  DesignDay,                              !- Cooling Design Air Flow Method
  ,                                       !- Cooling Design Air Flow Rate {m3/s}
  ,                                       !- Cooling Minimum Air Flow per Zone Floor Area {m3/s-m2}
  ,                                       !- Cooling Minimum Air Flow {m3/s}
  ,                                       !- Cooling Minimum Air Flow Fraction
  DesignDay,                              !- Heating Design Air Flow Method
  ,                                       !- Heating Design Air Flow Rate {m3/s}
  ,                                       !- Heating Maximum Air Flow per Zone Floor Area {m3/s-m2}
  ,                                       !- Heating Maximum Air Flow {m3/s}
  ,                                       !- Heating Maximum Air Flow Fraction
  No,                                     !- Account for Dedicated Outdoor Air System
  NeutralSupplyAir,                       !- Dedicated Outdoor Air System Control Strategy
  autosize,                               !- Dedicated Outdoor Air Low Setpoint Temperature for Design {C}
  autosize,                               !- Dedicated Outdoor Air High Setpoint Temperature for Design {C}
  Sensible Load Only No Latent Load,      !- Zone Load Sizing Method
  HumidityRatioDifference,                !- Zone Latent Cooling Design Supply Air Humidity Ratio Input Method
  ,                                       !- Zone Dehumidification Design Supply Air Humidity Ratio {kgWater/kgDryAir}
  0.005,                                  !- Zone Cooling Design Supply Air Humidity Ratio Difference {kgWater/kgDryAir}
  HumidityRatioDifference,                !- Zone Latent Heating Design Supply Air Humidity Ratio Input Method
  ,                                       !- Zone Humidification Design Supply Air Humidity Ratio {kgWater/kgDryAir}
  0.005,                                  !- Zone Humidification Design Supply Air Humidity Ratio Difference {kgWater/kgDryAir}
  ,                                       !- Zone Humidistat Dehumidification Set Point Schedule Name
  ,                                       !- Zone Humidistat Humidification Set Point Schedule Name
  ,                                       !- Design Zone Air Distribution Effectiveness in Cooling Mode
  ,                                       !- Design Zone Air Distribution Effectiveness in Heating Mode
  ,                                       !- Design Zone Secondary Recirculation Fraction {dimensionless}
  ,                                       !- Design Minimum Zone Ventilation Efficiency {dimensionless}
  Coincident;                             !- Sizing Option

OS:ZoneHVAC:EquipmentList,
  {030dc356-720f-46dc-9338-20c120ef91fd}, !- Handle
  Zone HVAC Equipment List 2,             !- Name
  {8dd8510e-66b0-4cfe-a3d2-24cc97d9515b}; !- Thermal Zone

OS:AdditionalProperties,
  {f3e90968-00c6-4d33-aef2-13294aab056f}, !- Handle
  {8dd8510e-66b0-4cfe-a3d2-24cc97d9515b}, !- Object Name
  ObjectType,                             !- Feature Name 1
  String,                                 !- Feature Data Type 1
  attic - vented;                         !- Feature Value 1

OS:Space,
  {7272047c-ec45-4658-ba43-ab1e965702f3}, !- Handle
  attic - vented 1,                       !- Name
  ,                                       !- Space Type Name
  ,                                       !- Default Construction Set Name
  ,                                       !- Default Schedule Set Name
  ,                                       !- Direction of Relative North {deg}
  ,                                       !- X Origin {m}
  ,                                       !- Y Origin {m}
  ,                                       !- Z Origin {m}
  ,                                       !- Building Story Name
  {8dd8510e-66b0-4cfe-a3d2-24cc97d9515b}, !- Thermal Zone Name
  ,                                       !- Part of Total Floor Area
  ,                                       !- Design Specification Outdoor Air Object Name
  ,                                       !- Building Unit Name
  443.601251426534;                       !- Volume {m3}

OS:Material,
  {37b9c460-b88e-47ee-912e-5c519574048b}, !- Handle
  asphalt or fiberglass shingles,         !- Name
  Rough,                                  !- Roughness
  0.00635,                                !- Thickness {m}
  0.162714,                               !- Conductivity {W/m-K}
  1121.4,                                 !- Density {kg/m3}
  1465.45,                                !- Specific Heat {J/kg-K}
  0.9,                                    !- Thermal Absorptance
  0.85,                                   !- Solar Absorptance