
OS:Version,
  {1a64e783-463b-4180-a2cc-34bdabf2e25e}, !- Handle
  3.10.0;                                 !- Version Identifier

OS:SimulationControl,
  {5863cbb6-8fbe-45e7-b004-72fb4fcde014}, !- Handle
  ,                                       !- Do Zone Sizing Calculation
  ,                                       !- Do System Sizing Calculation
  ,                                       !- Do Plant Sizing Calculation
  No;                                     !- Run Simulation for Sizing Periods

OS:Timestep,
  {0c933763-633d-4b7a-86a0-bf1ad3d74827}, !- Handle
  1;                                      !- Number of Timesteps per Hour

OS:ShadowCalculation,
  {d8b7edc9-1bc6-4484-9d55-979036348476}, !- Handle
  PolygonClipping,                        !- Shading Calculation Method
  ,                                       !- Shading Calculation Update Frequency Method
  20,                                     !- Shading Calculation Update Frequency
  200,                                    !- Maximum Figures in Shadow Overlap Calculations
  ,                                       !- Polygon Clipping Algorithm
  512,                                    !- Pixel Counting Resolution
  ,                                       !- Sky Diffuse Modeling Algorithm
  No,                                     !- Output External Shading Calculation Results
  No,                                     !- Disable Self-Shading Within Shading Zone Groups
  No;                                     !- Disable Self-Shading From Shading Zone Groups to Other Zones

OS:SurfaceConvectionAlgorithm:Outside,
  {82b32a32-defa-48bc-b82a-894a44089254}, !- Handle
  DOE-2;                                  !- Algorithm

OS:SurfaceConvectionAlgorithm:Inside,
  {b0970318-a2b4-4728-b03a-36e07e39b054}, !- Handle
  TARP;                                   !- Algorithm

OS:ZoneCapacitanceMultiplier:ResearchSpecial,
  {9cb4f61a-8d25-4a0d-9056-9a410e4fa51d}, !- Handle
  7,                                      !- Temperature Capacity Multiplier
  15,                                     !- Humidity Capacity Multiplier
  ;                                       !- Carbon Dioxide Capacity Multiplier

OS:ConvergenceLimits,
  {544bda44-d012-44dd-9bda-4057ba24b52d}, !- Handle
  0;                                      !- Minimum System Timestep {minutes}

OS:RunPeriod,
  {efa5c952-3c43-4cf8-a83f-27bc152ffdb3}, !- Handle
  Run Period 1,                           !- Name
  1,                                      !- Begin Month
  1,                                      !- Begin Day of Month
  12,                                     !- End Month
  31,                                     !- End Day of Month
  ,                                       !- Use Weather File Holidays and Special Days
  ,                                       !- Use Weather File Daylight Saving Period
  ,                                       !- Apply Weekend Holiday Rule
  ,                                       !- Use Weather File Rain Indicators
  ,                                       !- Use Weather File Snow Indicators
  ;                                       !- Number of Times Runperiod to be Repeated

OS:PerformancePrecisionTradeoffs,
  {90f32a89-c637-477a-92d6-5e6d93bf7c42}, !- Handle
  ,                                       !- Use Coil Direct Solutions
  CarrollMRT;                             !- Zone Radiant Exchange Algorithm

OS:WeatherFile,
  {9c41499a-ae5f-471a-a4ea-2094b5663443}, !- Handle
  Buffalo Niagara Intl Ap,                !- City
  NY,                                     !- State Province Region
  USA,                                    !- Country
  TMY3,                                   !- Data Source
  725280,                                 !- WMO Number
  42.93,                                  !- Latitude {deg}
  -78.73,                                 !- Longitude {deg}
  -5,                                     !- Time Zone {hr}
  215,                                    !- Elevation {m}
  /Users/nmoore/github/urbanopt-example-geojson-project/example_project/weather/USA_NY_Buffalo-Greater.Buffalo.Intl.AP.725280_TMY3.epw, !- Url
  6B50E0FF,                               !- Checksum
  ,                                       !- Start Date Actual Year
  Sunday;                                 !- Start Day of Week

OS:YearDescription,
  {bd324fec-180f-48dd-baee-d2bc331a00b6}, !- Handle
  2007,                                   !- Calendar Year
  ,                                       !- Day of Week for Start Day
  ;                                       !- Is Leap Year

OS:Site,
  {653fed3d-4648-4334-a393-e31e5fe4084a}, !- Handle
  Buffalo Niagara Intl Ap_NY,             !- Name
  42.93,                                  !- Latitude {deg}
  -78.73,                                 !- Longitude {deg}
  -5,                                     !- Time Zone {hr}
  215,                                    !- Elevation {m}
  Suburbs,                                !- Terrain
  Yes;                                    !- Keep Site Location Information

OS:RunPeriodControl:DaylightSavingTime,
  {110adf7a-9588-4555-a3c4-a5c84ad146de}, !- Handle
  Mar 12,                                 !- Start Date
  Nov 5;                                  !- End Date

OS:Site:GroundTemperature:Shallow,
  {7e270094-5f30-4e9d-93b5-d3f1d219e39e}, !- Handle
  4.30207395723828,                       !- January Surface Ground Temperature {C}
  2.29327249652502,                       !- February Surface Ground Temperature {C}
  2.13240047156047,                       !- March Surface Ground Temperature {C}
  3.08567940719286,                       !- April Surface Ground Temperature {C}
  6.91256312497526,                       !- May Surface Ground Temperature {C}
  10.7216195949507,                       !- June Surface Ground Temperature {C}
  14.0238679822574,                       !- July Surface Ground Temperature {C}
  16.1157611184724,                       !- August Surface Ground Temperature {C}
  16.2934789303462,                       !- September Surface Ground Temperature {C}
  14.5920754632847,                       !- October Surface Ground Temperature {C}
  11.374036348653,                        !- November Surface Ground Temperature {C}
  7.68182621661674;                       !- December Surface Ground Temperature {C}

OS:ThermalZone,
  {55f43ffb-73e2-442d-b52c-4dd6bca1d25c}, !- Handle
  conditioned space,                      !- Name
  1,                                      !- Multiplier
  ,                                       !- Ceiling Height {m}
  692.06373070848,                        !- Volume {m3}
  ,                                       !- Floor Area {m2}
  ,                                       !- Zone Inside Convection Algorithm
  ,                                       !- Zone Outside Convection Algorithm
  ,                                       !- Zone Conditioning Equipment List Name
  {acdf38d4-fa62-4dc6-8182-4074db6ed8cc}, !- Zone Air Inlet Port List
  {1f8de0b8-a79d-43aa-bf0c-dbd4fdfcd605}, !- Zone Air Exhaust Port List
  {c94aa4fb-f8e5-41ff-b922-0774c30e09b7}, !- Zone Air Node Name
  {eb67bcc7-00ac-4616-ad90-666e2662d78a}, !- Zone Return Air Port List
  ,                                       !- Primary Daylighting Control Name
  ,                                       !- Fraction of Zone Controlled by Primary Daylighting Control
  ,                                       !- Secondary Daylighting Control Name
  ,                                       !- Fraction of Zone Controlled by Secondary Daylighting Control
  ,                                       !- Illuminance Map Name
  ,                                       !- Group Rendering Name
  {43b00500-a230-4802-b9fa-1fdfc49dd657}, !- Thermostat Name
  No;                                     !- Use Ideal Air Loads

OS:Node,
  {8eeccbb6-47cd-4539-a38d-3baf6af48f2b}, !- Handle
  Node 1,                                 !- Name
  {c94aa4fb-f8e5-41ff-b922-0774c30e09b7}, !- Inlet Port
  ;                                       !- Outlet Port

OS:Connection,
  {c94aa4fb-f8e5-41ff-b922-0774c30e09b7}, !- Handle
  {55f43ffb-73e2-442d-b52c-4dd6bca1d25c}, !- Source Object
  11,                                     !- Outlet Port
  {8eeccbb6-47cd-4539-a38d-3baf6af48f2b}, !- Target Object
  2;                                      !- Inlet Port

OS:PortList,
  {acdf38d4-fa62-4dc6-8182-4074db6ed8cc}, !- Handle
  {55f43ffb-73e2-442d-b52c-4dd6bca1d25c}, !- HVAC Component
  {800a7ede-125a-461a-afc5-0d73e8cad177}; !- Port 1

OS:PortList,
  {1f8de0b8-a79d-43aa-bf0c-dbd4fdfcd605}, !- Handle
  {55f43ffb-73e2-442d-b52c-4dd6bca1d25c}; !- HVAC Component

OS:PortList,
  {eb67bcc7-00ac-4616-ad90-666e2662d78a}, !- Handle
  {55f43ffb-73e2-442d-b52c-4dd6bca1d25c}, !- HVAC Component
  {a6616225-5cf5-461b-8eff-ce7d34e4fa66}; !- Port 1

OS:Sizing:Zone,
  {8016a5d4-16fb-456d-8899-76633606f88a}, !- Handle
  {55f43ffb-73e2-442d-b52c-4dd6bca1d25c}, !- Zone or ZoneList Name
  SupplyAirTemperature,                   !- Zone Cooling Design Supply Air Temperature Input Method
  14,                                     !- Zone Cooling Design Supply Air Temperature {C}
  11.11,                                  !- Zone Cooling Design Supply Air Temperature Difference {deltaC}
  SupplyAirTemperature,                   !- Zone Heating Design Supply Air Temperature Input Method
  40,                                     !- Zone Heating Design Supply Air Temperature {C}
  11.11,                                  !- Zone Heating Design Supply Air Temperature Difference {deltaC}
  0.0085,                                 !- Zone Cooling Design Supply Air Humidity Ratio {kg-H2O/kg-air}
  0.008,                                  !- Zone Heating Design Supply Air Humidity Ratio {kg-H2O/kg-air}
  ,                                       !- Zone Heating Sizing Factor
  ,                                       !- Zone Cooling Sizing Factor
  DesignDay,                              !- Cooling Design Air Flow Method
  ,                                       !- Cooling Design Air Flow Rate {m3/s}
  ,                                       !- Cooling Minimum Air Flow per Zone Floor Area {m3/s-m2}
  ,                                       !- Cooling Minimum Air Flow {m3/s}
  ,                                       !- Cooling Minimum Air Flow Fraction
  DesignDay,                              !- Heating Design Air Flow Method
  ,                                       !- Heating Design Air Flow Rate {m3/s}
  ,                                       !- Heating Maximum Air Flow per Zone Floor Area {m3/s-m2}
  ,                                       !- Heating Maximum Air Flow {m3/s}
  ,                                       !- Heating Maximum Air Flow Fraction
  No,                                     !- Account for Dedicated Outdoor Air System
  NeutralSupplyAir,                       !- Dedicated Outdoor Air System Control Strategy
  autosize,                               !- Dedicated Outdoor Air Low Setpoint Temperature for Design {C}
  autosize,                               !- Dedicated Outdoor Air High Setpoint Temperature for Design {C}
  Sensible Load Only No Latent Load,      !- Zone Load Sizing Method
  HumidityRatioDifference,                !- Zone Latent Cooling Design Supply Air Humidity Ratio Input Method
  ,                                       !- Zone Dehumidification Design Supply Air Humidity Ratio {kgWater/kgDryAir}
  0.005,                                  !- Zone Cooling Design Supply Air Humidity Ratio Difference {kgWater/kgDryAir}
  HumidityRatioDifference,                !- Zone Latent Heating Design Supply Air Humidity Ratio Input Method
  ,                                       !- Zone Humidification Design Supply Air Humidity Ratio {kgWater/kgDryAir}
  0.005,                                  !- Zone Humidification Design Supply Air Humidity Ratio Difference {kgWater/kgDryAir}
  ,                                       !- Zone Humidistat Dehumidification Set Point Schedule Name
  ,                                       !- Zone Humidistat Humidification Set Point Schedule Name
  ,                                       !- Design Zone Air Distribution Effectiveness in Cooling Mode
  ,                                       !- Design Zone Air Distribution Effectiveness in Heating Mode
  ,                                       !- Design Zone Secondary Recirculation Fraction {dimensionless}
  ,                                       !- Design Minimum Zone Ventilation Efficiency {dimensionless}
  Coincident;                             !- Sizing Option

OS:ZoneHVAC:EquipmentList,
  {8ee1bcdc-cdde-41fd-878c-87eaa623e752}, !- Handle
  Zone HVAC Equipment List 1,             !- Name
  {55f43ffb-73e2-442d-b52c-4dd6bca1d25c}, !- Thermal Zone
  ,                                       !- Load Distribution Scheme
  {c01297c1-fc67-4682-937d-d76b9d25d7ff}, !- Zone Equipment 1
  1,                                      !- Zone Equipment Cooling Sequence 1
  1,                                      !- Zone Equipment Heating or No-Load Sequence 1
  {06d41a46-68a0-451a-99a3-538794e6733f}, !- Zone Equipment Sequential Cooling Fraction Schedule Name 1
  {053d3a52-2d94-4180-a914-fcaea94c6c81}; !- Zone Equipment Sequential Heating Fraction Schedule Name 1

OS:AdditionalProperties,
  {c5f83caa-16b2-4327-b56d-72e529722be3}, !- Handle
  {55f43ffb-73e2-442d-b52c-4dd6bca1d25c}, !- Object Name
  ObjectType,                             !- Feature Name 1
  String,                                 !- Feature Data Type 1
  conditioned space;                      !- Feature Value 1

OS:Space,
  {ccd2a2ce-90fd-457f-928a-c2851d804658}, !- Handle
  conditioned space 1,                    !- Name
  ,                                       !- Space Type Name
  ,                                       !- Default Construction Set Name
  ,                                       !- Default Schedule Set Name
  ,                                       !- Direction of Relative North {deg}
  ,                                       !- X Origin {m}
  ,                                       !- Y Origin {m}
  ,                                       !- Z Origin {m}
  ,                                       !- Building Story Name
  {55f43ffb-73e2-442d-b52c-4dd6bca1d25c}, !- Thermal Zone Name
  ,                                       !- Part of Total Floor Area
  ,                                       !- Design Specification Outdoor Air Object Name
  ,                                       !- Building Unit Name
  692.06373070848;                        !- Volume {m3}

OS:Schedule:Ruleset,
  {337818c0-0e9c-4bd4-8749-d87b38cca492}, !- Handle
  heating setpoint,                       !- Name
  {e3b507d1-746a-4807-a635-1a8c6f831f51}, !- Schedule Type Limits Name
  {4f8ac177-f781-49b5-803e-54a734963dfd}; !- Default Day Schedule Name

OS:Schedule:Day,
  {4f8ac177-f781-49b5-803e-54a734963dfd}, !- Handle
  heating setpoint default day,           !- Name
  {e3b507d1-746a-4807-a635-1a8c6f831f51}, !- Schedule Type Limits Name
  ,                                       !- Interpolate to Timestep
  24,                                     !- Hour 1
  0,                                      !- Minute 1
  0;                                      !- Value Until Time 1

OS:Schedule:Rule,
  {77d7e3ce-6da5-4b78-ae84-3964e8c5d974}, !- Handle
  heating setpoint allday rule,           !- Name
  {337818c0-0e9c-4bd4-8749-d87b38cca492}, !- Schedule Ruleset Name
  0,                                      !- Rule Order
  {fc3310fd-65f0-42e0-9a95-2c5b9233bfa8}, !- Day Schedule Name
  Yes,                                    !- Apply Sunday
  Yes,                                    !- Apply Monday
  Yes,                                    !- Apply Tuesday
  Yes,                                    !- Apply Wednesday
  Yes,                                    !- Apply Thursday
  Yes,                                    !- Apply Friday
  Yes,                                    !- Apply Saturday
  DateRange,                              !- Date Specification Type
  1,                                      !- Start Month
  1,                                      !- Start Day
  12,                                     !- End Month
  31;                                     !- End Day

OS:Schedule:Day,
  {fc3310fd-65f0-42e0-9a95-2c5b9233bfa8}, !- Handle
  heating setpoint day,                   !- Name
  {e3b507d1-746a-4807-a635-1a8c6f831f51}, !- Schedule Type Limits Name
  ,                                       !- Interpolate to Timestep
  24,                                     !- Hour 1
  0,                                      !- Minute 1
  20;                                     !- Value Until Time 1

OS:Schedule:Ruleset,
  {88aa6132-50a3-4a6d-b4a8-aac76cd7029b}, !- Handle
  cooling setpoint,                       !- Name
  {e3b507d1-746a-4807-a635-1a8c6f831f51}, !- Schedule Type Limits Name
  {7d9ad897-3097-48a5-bef0-ace35880b6f2}; !- Default Day Schedule Name

OS:Schedule:Day,
  {7d9ad897-3097-48a5-bef0-ace35880b6f2}, !- Handle
  cooling setpoint default day,           !- Name
  {e3b507d1-746a-4807-a635-1a8c6f831f51}, !- Schedule Type Limits Name
  ,                                       !- Interpolate to Timestep
  24,                                     !- Hour 1
  0,                                      !- Minute 1
  0;                                      !- Value Until Time 1

OS:Schedule:Rule,
  {87abca56-65b7-4e03-941d-cecead266fc0}, !- Handle
  cooling setpoint allday rule,           !- Name
  {88aa6132-50a3-4a6d-b4a8-aac76cd7029b}, !- Schedule Ruleset Name
  0,                                      !- Rule Order
  {d2b9c8b6-b4df-4bdb-9b0c-71f9e80e72dd}, !- Day Schedule Name
  Yes,                                    !- Apply Sunday
  Yes,                                    !- Apply Monday
  Yes,                                    !- Apply Tuesday
  Yes,                                    !- Apply Wednesday
  Yes,                                    !- Apply Thursday
  Yes,                                    !- Apply Friday
  Yes,                                    !- Apply Saturday
  DateRange,                              !- Date Specification Type
  1,                                      !- Start Month
  1,                                      !- Start Day
  12,                                     !- End Month
  31;                                     !- End Day

OS:Schedule:Day,
  {d2b9c8b6-b4df-4bdb-9b0c-71f9e80e72dd}, !- Handle
  cooling setpoint day,                   !- Name
  {e3b507d1-746a-4807-a635-1a8c6f831f51}, !- Schedule Type Limits Name
  ,                                       !- Interpolate to Timestep
  24,                                     !- Hour 1
  0,                                      !- Minute 1
  25.5555555555556;                       !- Value Until Time 1

OS:ThermostatSetpoint:DualSetpoint,
  {43b00500-a230-4802-b9fa-1fdfc49dd657}, !- Handle
  conditioned space temperature setpoint, !- Name
  {337818c0-0e9c-4bd4-8749-d87b38cca492}, !- Heating Setpoint Temperature Schedule Name
  {88aa6132-50a3-4a6d-b4a8-aac76cd7029b}, !- Cooling Setpoint Temperature Schedule Name
  0;                                      !- Temperature Difference Between Cutout And Setpoint {deltaC}

OS:ScheduleTypeLimits,
  {e3b507d1-746a-4807-a635-1a8c6f831f51}, !- Handle
  Temperature,                            !- Name
  ,                                       !- Lower Limit Value
  ,                                       !- Upper Limit Value
  Continuous,                             !- Numeric Type
  Temperature;                            !- Unit Type

OS:Surface,
  {6c2fd352-593a-4f3a-b41b-8bb98baeb91f}, !- Handle
  Roof1,                                  !- Name
  RoofCeiling,                            !- Surface Type
  {6ef1ec60-094f-44b7-afa5-dc5dd1a82901}, !- Construction Name
  {037fc7d8-bcc9-46aa-85fd-0a2796c2d4d9}, !- Space Name
  Outdoors,                               !- Outside Boundary Condition
  ,                                       !- Outside Boundary Condition Object
  SunExposed,                             !- Sun Exposure
  WindExposed,                            !- Wind Exposure
  ,                                       !- View Factor to Ground
  ,                                       !- Number of Vertices
  -19.6245848849634, 50.7456691618865, 2.4384, !- X,Y,Z Vertex 1 {m}
  -19.6245848849634, 39.4794431136661, 8.0715130241102, !- X,Y,Z Vertex 2 {m}
  -7.02856123811356, 39.4794431136661, 8.0715130241102, !- X,Y,Z Vertex 3 {m}
  -7.02856123811356, 50.7456691618865, 2.4384; !- X,Y,Z Vertex 4 {m}

OS:AdditionalProperties,
  {8ecd3a4c-1be4-4976-94d6-e07c20b98a61}, !- Handle
  {6c2fd352-593a-4f3a-b41b-8bb98baeb91f}, !- Object Name
  Length,                                 !- Feature Name 1
  Double,                                 !- Feature Data Type 1
  41.325536899113608,                     !- Feature Value 1
  Width,                                  !- Feature Name 2
  Double,                                 !- Feature Data Type 2
  41.325536899113601,                     !- Feature Value 2
  Azimuth,                                !- Feature Name 3
  Integer,                                !- Feature Data Type 3
  0,                                      !- Feature Value 3
  Tilt,                                   !- Feature Name 4
  Double,                                 !- Feature Data Type 4
  0.5,                                    !- Feature Value 4
  SurfaceType,                            !- Feature Name 5
  String,                                 !- Feature Data Type 5
  Roof;                                   !- Feature Value 5

OS:ThermalZone,
  {1f05330f-555c-4885-adfb-b6b27ad86fd4}, !- Handle
  attic - vented,                         !- Name
  1,                                      !- Multiplier
  ,                                       !- Ceiling Height {m}
  443.592808147228,                       !- Volume {m3}
  ,                                       !- Floor Area {m2}
  ,                                       !- Zone Inside Convection Algorithm
  ,                                       !- Zone Outside Convection Algorithm
  ,                                       !- Zone Conditioning Equipment List Name
  {90d086b4-3286-45e2-ba38-a6595af3a4d5}, !- Zone Air Inlet Port List
  {64119b1f-9f1a-434a-bd08-3849ac5fe6b6}, !- Zone Air Exhaust Port List
  {ef8a3d40-c069-4d2b-9149-1ec4d9456003}, !- Zone Air Node Name
  {1cc50b2a-21e3-4048-888a-1eac5e0f74cc}, !- Zone Return Air Port List
  ,                                       !- Primary Daylighting Control Name
  ,                                       !- Fraction of Zone Controlled by Primary Daylighting Control
  ,                                       !- Secondary Daylighting Control Name
  ,                                       !- Fraction of Zone Controlled by Secondary Daylighting Control
  ,                                       !- Illuminance Map Name
  ,                                       !- Group Rendering Name
  ,                                       !- Thermostat Name
  No;                                     !- Use Ideal Air Loads

OS:Node,
  {9b368a56-23cf-43d0-b23b-9b2ca9242875}, !- Handle
  Node 2,                                 !- Name
  {ef8a3d40-c069-4d2b-9149-1ec4d9456003}, !- Inlet Port
  ;                                       !- Outlet Port

OS:Connection,
  {ef8a3d40-c069-4d2b-9149-1ec4d9456003}, !- Handle
  {1f05330f-555c-4885-adfb-b6b27ad86fd4}, !- Source Object
  11,                                     !- Outlet Port
  {9b368a56-23cf-43d0-b23b-9b2ca9242875}, !- Target Object
  2;                                      !- Inlet Port

OS:PortList,
  {90d086b4-3286-45e2-ba38-a6595af3a4d5}, !- Handle
  {1f05330f-555c-4885-adfb-b6b27ad86fd4}; !- HVAC Component

OS:PortList,
  {64119b1f-9f1a-434a-bd08-3849ac5fe6b6}, !- Handle
  {1f05330f-555c-4885-adfb-b6b27ad86fd4}; !- HVAC Component

OS:PortList,
  {1cc50b2a-21e3-4048-888a-1eac5e0f74cc}, !- Handle
  {1f05330f-555c-4885-adfb-b6b27ad86fd4}; !- HVAC Component

OS:Sizing:Zone,
  {29fb415f-2e81-44b4-ae4a-c9dfe812a8fc}, !- Handle
  {1f05330f-555c-4885-adfb-b6b27ad86fd4}, !- Zone or ZoneList Name
  SupplyAirTemperature,                   !- Zone Cooling Design Supply Air Temperature Input Method
  14,                                     !- Zone Cooling Design Supply Air Temperature {C}
  11.11,                                  !- Zone Cooling Design Supply Air Temperature Difference {deltaC}
  SupplyAirTemperature,                   !- Zone Heating Design Supply Air Temperature Input Method
  40,                                     !- Zone Heating Design Supply Air Temperature {C}
  11.11,                                  !- Zone Heating Design Supply Air Temperature Difference {deltaC}
  0.0085,                                 !- Zone Cooling Design Supply Air Humidity Ratio {kg-H2O/kg-air}
  0.008,                                  !- Zone Heating Design Supply Air Humidity Ratio {kg-H2O/kg-air}
  ,                                       !- Zone Heating Sizing Factor
  ,                                       !- Zone Cooling Sizing Factor
  DesignDay,                              !- Cooling Design Air Flow Method
  ,                                       !- Cooling Design Air Flow Rate {m3/s}
  ,                                       !- Cooling Minimum Air Flow per Zone Floor Area {m3/s-m2}
  ,                                       !- Cooling Minimum Air Flow {m3/s}
  ,                                       !- Cooling Minimum Air Flow Fraction
  DesignDay,                              !- Heating Design Air Flow Method
  ,                                       !- Heating Design Air Flow Rate {m3/s}
  ,                                       !- Heating Maximum Air Flow per Zone Floor Area {m3/s-m2}
  ,                                       !- Heating Maximum Air Flow {m3/s}
  ,                                       !- Heating Maximum Air Flow Fraction
  No,                                     !- Account for Dedicated Outdoor Air System
  NeutralSupplyAir,                       !- Dedicated Outdoor Air System Control Strategy
  autosize,                               !- Dedicated Outdoor Air Low Setpoint Temperature for Design {C}
  autosize,                               !- Dedicated Outdoor Air High Setpoint Temperature for Design {C}
  Sensible Load Only No Latent Load,      !- Zone Load Sizing Method
  HumidityRatioDifference,                !- Zone Latent Cooling Design Supply Air Humidity Ratio Input Method
  ,                                       !- Zone Dehumidification Design Supply Air Humidity Ratio {kgWater/kgDryAir}
  0.005,                                  !- Zone Cooling Design Supply Air Humidity Ratio Difference {kgWater/kgDryAir}
  HumidityRatioDifference,                !- Zone Latent Heating Design Supply Air Humidity Ratio Input Method
  ,                                       !- Zone Humidification Design Supply Air Humidity Ratio {kgWater/kgDryAir}
  0.005,                                  !- Zone Humidification Design Supply Air Humidity Ratio Difference {kgWater/kgDryAir}
  ,                                       !- Zone Humidistat Dehumidification Set Point Schedule Name
  ,                                       !- Zone Humidistat Humidification Set Point Schedule Name
  ,                                       !- Design Zone Air Distribution Effectiveness in Cooling Mode
  ,                                       !- Design Zone Air Distribution Effectiveness in Heating Mode
  ,                                       !- Design Zone Secondary Recirculation Fraction {dimensionless}
  ,                                       !- Design Minimum Zone Ventilation Efficiency {dimensionless}
  Coincident;                             !- Sizing Option

OS:ZoneHVAC:EquipmentList,
  {ec37ca6b-7460-45f6-a23d-5ee64e5a68dc}, !- Handle
  Zone HVAC Equipment List 2,             !- Name
  {1f05330f-555c-4885-adfb-b6b27ad86fd4}; !- Thermal Zone

OS:AdditionalProperties,
  {ac178b44-8030-42a2-b25c-665ff309f646}, !- Handle
  {1f05330f-555c-4885-adfb-b6b27ad86fd4}, !- Object Name
  ObjectType,                             !- Feature Name 1
  String,                                 !- Feature Data Type 1
  attic - vented;                         !- Feature Value 1

OS:Space,
  {037fc7d8-bcc9-46aa-85fd-0a2796c2d4d9}, !- Handle
  attic - vented 1,                       !- Name
  ,                                       !- Space Type Name
  ,                                       !- Default Construction Set Name
  ,                                       !- Default Schedule Set Name
  ,                                       !- Direction of Relative North {deg}
  ,                                       !- X Origin {m}
  ,                                       !- Y Origin {m}
  ,                                       !- Z Origin {m}
  ,                                       !- Building Story Name
  {1f05330f-555c-4885-adfb-b6b27ad86fd4}, !- Thermal Zone Name
  ,                                       !- Part of Total Floor Area
  ,                                       !- Design Specification Outdoor Air Object Name
  ,                                       !- Building Unit Name
  443.592808147228;                       !- Volume {m3}

OS:Material,
  {0d77ba4b-7d93-41f1-b526-c4021ac67694}, !- Handle
  asphalt or fiberglass shingles,         !- Name
  Rough,                                  !- Roughness
  0.00635,                                !- Thickness {m}
  0.162714,                               !- Conductivity {W/m-K}
  1121.4,                                 !- Density {kg/m3}
  1465.45,                                !- Specific Heat {J/kg-K}
  0.9,                                    !- Thermal Absorptance
  0.85,                                   !- Solar Absorptance