
OS:Version,
  {bc6624e3-0d62-4ca4-b816-a101c7865bbd}, !- Handle
  3.9.0;                                  !- Version Identifier

OS:SimulationControl,
  {92db55b9-0c7d-4fe5-9f0b-1272df9ff5ab}, !- Handle
  ,                                       !- Do Zone Sizing Calculation
  ,                                       !- Do System Sizing Calculation
  ,                                       !- Do Plant Sizing Calculation
  No;                                     !- Run Simulation for Sizing Periods

OS:Timestep,
  {31446070-f6be-42a2-8a2c-90f65d5cb865}, !- Handle
  1;                                      !- Number of Timesteps per Hour

OS:ShadowCalculation,
  {09e63a7f-dda0-4141-bd38-6fe206415f4a}, !- Handle
  PolygonClipping,                        !- Shading Calculation Method
  ,                                       !- Shading Calculation Update Frequency Method
  20,                                     !- Shading Calculation Update Frequency
  200,                                    !- Maximum Figures in Shadow Overlap Calculations
  ,                                       !- Polygon Clipping Algorithm
  512,                                    !- Pixel Counting Resolution
  ,                                       !- Sky Diffuse Modeling Algorithm
  No,                                     !- Output External Shading Calculation Results
  No,                                     !- Disable Self-Shading Within Shading Zone Groups
  No;                                     !- Disable Self-Shading From Shading Zone Groups to Other Zones

OS:SurfaceConvectionAlgorithm:Outside,
  {b884d2c1-26ac-4823-8097-d52a73ed042d}, !- Handle
  DOE-2;                                  !- Algorithm

OS:SurfaceConvectionAlgorithm:Inside,
  {b17973f7-ae06-4989-a436-412e3c5c368f}, !- Handle
  TARP;                                   !- Algorithm

OS:ZoneCapacitanceMultiplier:ResearchSpecial,
  {d7e7d834-c2c8-4394-942c-e042f269cbd5}, !- Handle
  7,                                      !- Temperature Capacity Multiplier
  15,                                     !- Humidity Capacity Multiplier
  ;                                       !- Carbon Dioxide Capacity Multiplier

OS:ConvergenceLimits,
  {4e97cd8b-5deb-4d25-b14f-b0101076fbd6}, !- Handle
  0;                                      !- Minimum System Timestep {minutes}

OS:RunPeriod,
  {f3bb7a4c-9905-435f-a596-dfb5a36ccda7}, !- Handle
  Run Period 1,                           !- Name
  1,                                      !- Begin Month
  1,                                      !- Begin Day of Month
  12,                                     !- End Month
  31,                                     !- End Day of Month
  ,                                       !- Use Weather File Holidays and Special Days
  ,                                       !- Use Weather File Daylight Saving Period
  ,                                       !- Apply Weekend Holiday Rule
  ,                                       !- Use Weather File Rain Indicators
  ,                                       !- Use Weather File Snow Indicators
  ;                                       !- Number of Times Runperiod to be Repeated

OS:PerformancePrecisionTradeoffs,
  {0b928a1d-68c4-4987-8a9e-9680ae176e34}, !- Handle
  ,                                       !- Use Coil Direct Solutions
  CarrollMRT;                             !- Zone Radiant Exchange Algorithm

OS:WeatherFile,
  {94517c07-9494-48c1-ad0e-db4765ccf1b7}, !- Handle
  Buffalo Niagara Intl Ap,                !- City
  NY,                                     !- State Province Region
  USA,                                    !- Country
  TMY3,                                   !- Data Source
  725280,                                 !- WMO Number
  42.93,                                  !- Latitude {deg}
  -78.73,                                 !- Longitude {deg}
  -5,                                     !- Time Zone {hr}
  215,                                    !- Elevation {m}
  /Users/nmoore/github/urbanopt-example-geojson-project/example_project/weather/USA_NY_Buffalo-Greater.Buffalo.Intl.AP.725280_TMY3.epw, !- Url
  6B50E0FF,                               !- Checksum
  ,                                       !- Start Date Actual Year
  Sunday;                                 !- Start Day of Week

OS:YearDescription,
  {62fdba91-dd7b-43e4-9889-26e23b3ebd6f}, !- Handle
  2007,                                   !- Calendar Year
  ,                                       !- Day of Week for Start Day
  ;                                       !- Is Leap Year

OS:Site,
  {7cc945ac-55de-42dc-9549-4bb67632c6ff}, !- Handle
  Buffalo Niagara Intl Ap_NY,             !- Name
  42.93,                                  !- Latitude {deg}
  -78.73,                                 !- Longitude {deg}
  -5,                                     !- Time Zone {hr}
  215,                                    !- Elevation {m}
  Suburbs,                                !- Terrain
  Yes;                                    !- Keep Site Location Information

OS:RunPeriodControl:DaylightSavingTime,
  {85ce9930-3e89-4795-9d60-e5f2a56c5759}, !- Handle
  Mar 12,                                 !- Start Date
  Nov 5;                                  !- End Date

OS:Site:GroundTemperature:Shallow,
  {2bfce39c-eaa7-4934-8a8f-b5b9d55cdf1d}, !- Handle
  4.30207395723828,                       !- January Surface Ground Temperature {C}
  2.29327249652502,                       !- February Surface Ground Temperature {C}
  2.13240047156047,                       !- March Surface Ground Temperature {C}
  3.08567940719286,                       !- April Surface Ground Temperature {C}
  6.91256312497526,                       !- May Surface Ground Temperature {C}
  10.7216195949507,                       !- June Surface Ground Temperature {C}
  14.0238679822574,                       !- July Surface Ground Temperature {C}
  16.1157611184724,                       !- August Surface Ground Temperature {C}
  16.2934789303462,                       !- September Surface Ground Temperature {C}
  14.5920754632847,                       !- October Surface Ground Temperature {C}
  11.374036348653,                        !- November Surface Ground Temperature {C}
  7.68182621661674;                       !- December Surface Ground Temperature {C}

OS:ThermalZone,
  {a2aee978-9746-491a-ab0a-0f07bad605ed}, !- Handle
  conditioned space,                      !- Name
  1,                                      !- Multiplier
  ,                                       !- Ceiling Height {m}
  692.06373070848,                        !- Volume {m3}
  ,                                       !- Floor Area {m2}
  ,                                       !- Zone Inside Convection Algorithm
  ,                                       !- Zone Outside Convection Algorithm
  ,                                       !- Zone Conditioning Equipment List Name
  {b8fed2f6-8839-49c5-89ef-28ebde1bbb4f}, !- Zone Air Inlet Port List
  {b4b2b316-0fd7-4ed0-84c5-a28d1905c3ed}, !- Zone Air Exhaust Port List
  {b6b18d55-bec7-4cdd-a6af-219dba814955}, !- Zone Air Node Name
  {e0b8822a-cbbf-4cec-af86-72f1494d72ef}, !- Zone Return Air Port List
  ,                                       !- Primary Daylighting Control Name
  ,                                       !- Fraction of Zone Controlled by Primary Daylighting Control
  ,                                       !- Secondary Daylighting Control Name
  ,                                       !- Fraction of Zone Controlled by Secondary Daylighting Control
  ,                                       !- Illuminance Map Name
  ,                                       !- Group Rendering Name
  {0a53e108-5698-40a0-a764-fdd69fa0a91b}, !- Thermostat Name
  No;                                     !- Use Ideal Air Loads

OS:Node,
  {5600c28a-36d2-4e9c-b91c-74f22a2c6f1d}, !- Handle
  Node 1,                                 !- Name
  {b6b18d55-bec7-4cdd-a6af-219dba814955}, !- Inlet Port
  ;                                       !- Outlet Port

OS:Connection,
  {b6b18d55-bec7-4cdd-a6af-219dba814955}, !- Handle
  {a2aee978-9746-491a-ab0a-0f07bad605ed}, !- Source Object
  11,                                     !- Outlet Port
  {5600c28a-36d2-4e9c-b91c-74f22a2c6f1d}, !- Target Object
  2;                                      !- Inlet Port

OS:PortList,
  {b8fed2f6-8839-49c5-89ef-28ebde1bbb4f}, !- Handle
  {a2aee978-9746-491a-ab0a-0f07bad605ed}, !- HVAC Component
  {84cd307e-2f07-4352-8e69-6dd0734b2432}; !- Port 1

OS:PortList,
  {b4b2b316-0fd7-4ed0-84c5-a28d1905c3ed}, !- Handle
  {a2aee978-9746-491a-ab0a-0f07bad605ed}; !- HVAC Component

OS:PortList,
  {e0b8822a-cbbf-4cec-af86-72f1494d72ef}, !- Handle
  {a2aee978-9746-491a-ab0a-0f07bad605ed}, !- HVAC Component
  {f1157e46-180d-4568-b097-fad525711b21}; !- Port 1

OS:Sizing:Zone,
  {9a97482e-e371-4d6a-8661-d45fb8c8be9d}, !- Handle
  {a2aee978-9746-491a-ab0a-0f07bad605ed}, !- Zone or ZoneList Name
  SupplyAirTemperature,                   !- Zone Cooling Design Supply Air Temperature Input Method
  14,                                     !- Zone Cooling Design Supply Air Temperature {C}
  11.11,                                  !- Zone Cooling Design Supply Air Temperature Difference {deltaC}
  SupplyAirTemperature,                   !- Zone Heating Design Supply Air Temperature Input Method
  40,                                     !- Zone Heating Design Supply Air Temperature {C}
  11.11,                                  !- Zone Heating Design Supply Air Temperature Difference {deltaC}
  0.0085,                                 !- Zone Cooling Design Supply Air Humidity Ratio {kg-H2O/kg-air}
  0.008,                                  !- Zone Heating Design Supply Air Humidity Ratio {kg-H2O/kg-air}
  ,                                       !- Zone Heating Sizing Factor
  ,                                       !- Zone Cooling Sizing Factor
  DesignDay,                              !- Cooling Design Air Flow Method
  ,                                       !- Cooling Design Air Flow Rate {m3/s}
  ,                                       !- Cooling Minimum Air Flow per Zone Floor Area {m3/s-m2}
  ,                                       !- Cooling Minimum Air Flow {m3/s}
  ,                                       !- Cooling Minimum Air Flow Fraction
  DesignDay,                              !- Heating Design Air Flow Method
  ,                                       !- Heating Design Air Flow Rate {m3/s}
  ,                                       !- Heating Maximum Air Flow per Zone Floor Area {m3/s-m2}
  ,                                       !- Heating Maximum Air Flow {m3/s}
  ,                                       !- Heating Maximum Air Flow Fraction
  No,                                     !- Account for Dedicated Outdoor Air System
  NeutralSupplyAir,                       !- Dedicated Outdoor Air System Control Strategy
  autosize,                               !- Dedicated Outdoor Air Low Setpoint Temperature for Design {C}
  autosize,                               !- Dedicated Outdoor Air High Setpoint Temperature for Design {C}
  Sensible Load Only No Latent Load,      !- Zone Load Sizing Method
  HumidityRatioDifference,                !- Zone Latent Cooling Design Supply Air Humidity Ratio Input Method
  ,                                       !- Zone Dehumidification Design Supply Air Humidity Ratio {kgWater/kgDryAir}
  0.005,                                  !- Zone Cooling Design Supply Air Humidity Ratio Difference {kgWater/kgDryAir}
  HumidityRatioDifference,                !- Zone Latent Heating Design Supply Air Humidity Ratio Input Method
  ,                                       !- Zone Humidification Design Supply Air Humidity Ratio {kgWater/kgDryAir}
  0.005,                                  !- Zone Humidification Design Supply Air Humidity Ratio Difference {kgWater/kgDryAir}
  ,                                       !- Zone Humidistat Dehumidification Set Point Schedule Name
  ,                                       !- Zone Humidistat Humidification Set Point Schedule Name
  ,                                       !- Design Zone Air Distribution Effectiveness in Cooling Mode
  ,                                       !- Design Zone Air Distribution Effectiveness in Heating Mode
  ,                                       !- Design Zone Secondary Recirculation Fraction {dimensionless}
  ,                                       !- Design Minimum Zone Ventilation Efficiency {dimensionless}
  Coincident;                             !- Sizing Option

OS:ZoneHVAC:EquipmentList,
  {0d15b3db-a390-4806-be27-759f749b872a}, !- Handle
  Zone HVAC Equipment List 1,             !- Name
  {a2aee978-9746-491a-ab0a-0f07bad605ed}, !- Thermal Zone
  ,                                       !- Load Distribution Scheme
  {64e9bd16-60ed-4a39-b171-bfca0085bb2f}, !- Zone Equipment 1
  1,                                      !- Zone Equipment Cooling Sequence 1
  1,                                      !- Zone Equipment Heating or No-Load Sequence 1
  {48fec1d4-6cda-4c1d-9860-a33a21df00e6}, !- Zone Equipment Sequential Cooling Fraction Schedule Name 1
  {942eefc9-d837-48a3-84ec-d584a23dfde8}; !- Zone Equipment Sequential Heating Fraction Schedule Name 1

OS:AdditionalProperties,
  {17c9f8e5-5628-48c4-8d76-ba18656bed70}, !- Handle
  {a2aee978-9746-491a-ab0a-0f07bad605ed}, !- Object Name
  ObjectType,                             !- Feature Name 1
  String,                                 !- Feature Data Type 1
  conditioned space;                      !- Feature Value 1

OS:Space,
  {8829a814-42c9-4510-a9ab-39052a80c02f}, !- Handle
  conditioned space 1,                    !- Name
  ,                                       !- Space Type Name
  ,                                       !- Default Construction Set Name
  ,                                       !- Default Schedule Set Name
  ,                                       !- Direction of Relative North {deg}
  ,                                       !- X Origin {m}
  ,                                       !- Y Origin {m}
  ,                                       !- Z Origin {m}
  ,                                       !- Building Story Name
  {a2aee978-9746-491a-ab0a-0f07bad605ed}, !- Thermal Zone Name
  ,                                       !- Part of Total Floor Area
  ,                                       !- Design Specification Outdoor Air Object Name
  ,                                       !- Building Unit Name
  692.06373070848;                        !- Volume {m3}

OS:Schedule:Ruleset,
  {b28db629-0a48-487d-b543-1cc226df2224}, !- Handle
  heating setpoint,                       !- Name
  {6bedacb0-fd67-4033-8d33-83c1493e81f9}, !- Schedule Type Limits Name
  {b7db8ddc-dcac-4b34-ad19-cf4db455ab17}; !- Default Day Schedule Name

OS:Schedule:Day,
  {b7db8ddc-dcac-4b34-ad19-cf4db455ab17}, !- Handle
  heating setpoint default day,           !- Name
  {6bedacb0-fd67-4033-8d33-83c1493e81f9}, !- Schedule Type Limits Name
  ,                                       !- Interpolate to Timestep
  24,                                     !- Hour 1
  0,                                      !- Minute 1
  0;                                      !- Value Until Time 1

OS:Schedule:Rule,
  {b75539cc-596d-4b33-af61-b38bd49c2654}, !- Handle
  heating setpoint allday rule,           !- Name
  {b28db629-0a48-487d-b543-1cc226df2224}, !- Schedule Ruleset Name
  0,                                      !- Rule Order
  {5a809e79-ab27-47b2-b402-9caf1d7dddf6}, !- Day Schedule Name
  Yes,                                    !- Apply Sunday
  Yes,                                    !- Apply Monday
  Yes,                                    !- Apply Tuesday
  Yes,                                    !- Apply Wednesday
  Yes,                                    !- Apply Thursday
  Yes,                                    !- Apply Friday
  Yes,                                    !- Apply Saturday
  DateRange,                              !- Date Specification Type
  1,                                      !- Start Month
  1,                                      !- Start Day
  12,                                     !- End Month
  31;                                     !- End Day

OS:Schedule:Day,
  {5a809e79-ab27-47b2-b402-9caf1d7dddf6}, !- Handle
  heating setpoint day,                   !- Name
  {6bedacb0-fd67-4033-8d33-83c1493e81f9}, !- Schedule Type Limits Name
  ,                                       !- Interpolate to Timestep
  7,                                      !- Hour 1
  0,                                      !- Minute 1
  16.6666666666667,                       !- Value Until Time 1
  22,                                     !- Hour 2
  0,                                      !- Minute 2
  18.3333333333333,                       !- Value Until Time 2
  24,                                     !- Hour 3
  0,                                      !- Minute 3
  16.6666666666667;                       !- Value Until Time 3

OS:Schedule:Ruleset,
  {acd29dac-29b5-4fc2-85c4-c479d130b7ed}, !- Handle
  cooling setpoint,                       !- Name
  {6bedacb0-fd67-4033-8d33-83c1493e81f9}, !- Schedule Type Limits Name
  {4c1d8bab-c5d2-4b4c-a352-05d7f82cb583}; !- Default Day Schedule Name

OS:Schedule:Day,
  {4c1d8bab-c5d2-4b4c-a352-05d7f82cb583}, !- Handle
  cooling setpoint default day,           !- Name
  {6bedacb0-fd67-4033-8d33-83c1493e81f9}, !- Schedule Type Limits Name
  ,                                       !- Interpolate to Timestep
  24,                                     !- Hour 1
  0,                                      !- Minute 1
  0;                                      !- Value Until Time 1

OS:Schedule:Rule,
  {64542672-7438-4b23-9e87-2b0514727735}, !- Handle
  cooling setpoint allday rule,           !- Name
  {acd29dac-29b5-4fc2-85c4-c479d130b7ed}, !- Schedule Ruleset Name
  0,                                      !- Rule Order
  {8fc2225c-20b4-4d89-8b7b-0bb22d943cde}, !- Day Schedule Name
  Yes,                                    !- Apply Sunday
  Yes,                                    !- Apply Monday
  Yes,                                    !- Apply Tuesday
  Yes,                                    !- Apply Wednesday
  Yes,                                    !- Apply Thursday
  Yes,                                    !- Apply Friday
  Yes,                                    !- Apply Saturday
  DateRange,                              !- Date Specification Type
  1,                                      !- Start Month
  1,                                      !- Start Day
  12,                                     !- End Month
  31;                                     !- End Day

OS:Schedule:Day,
  {8fc2225c-20b4-4d89-8b7b-0bb22d943cde}, !- Handle
  cooling setpoint day,                   !- Name
  {6bedacb0-fd67-4033-8d33-83c1493e81f9}, !- Schedule Type Limits Name
  ,                                       !- Interpolate to Timestep
  24,                                     !- Hour 1
  0,                                      !- Minute 1
  23.8888888888889;                       !- Value Until Time 1

OS:ThermostatSetpoint:DualSetpoint,
  {0a53e108-5698-40a0-a764-fdd69fa0a91b}, !- Handle
  conditioned space temperature setpoint, !- Name
  {b28db629-0a48-487d-b543-1cc226df2224}, !- Heating Setpoint Temperature Schedule Name
  {acd29dac-29b5-4fc2-85c4-c479d130b7ed}, !- Cooling Setpoint Temperature Schedule Name
  0;                                      !- Temperature Difference Between Cutout And Setpoint {deltaC}

OS:ScheduleTypeLimits,
  {6bedacb0-fd67-4033-8d33-83c1493e81f9}, !- Handle
  Temperature,                            !- Name
  ,                                       !- Lower Limit Value
  ,                                       !- Upper Limit Value
  Continuous,                             !- Numeric Type
  Temperature;                            !- Unit Type

OS:Surface,
  {4f666804-dcf9-4caa-b08a-55d13b132cbe}, !- Handle
  Roof1,                                  !- Name
  RoofCeiling,                            !- Surface Type
  {5f52cde2-e170-49c3-b124-a1faf5bbcf49}, !- Construction Name
  {b8849895-0c30-446d-a798-d83a160cb489}, !- Space Name
  Outdoors,                               !- Outside Boundary Condition
  ,                                       !- Outside Boundary Condition Object
  SunExposed,                             !- Sun Exposure
  WindExposed,                            !- Wind Exposure
  ,                                       !- View Factor to Ground
  ,                                       !- Number of Vertices
  -4.47962684160187, 4.47962684160188, 2.7432, !- X,Y,Z Vertex 1 {m}
  -4.47962684160188, -4.47962684160188, 2.7432, !- X,Y,Z Vertex 2 {m}
  4.47962684160187, -4.47962684160188, 2.7432, !- X,Y,Z Vertex 3 {m}
  4.47962684160188, 4.47962684160188, 2.7432; !- X,Y,Z Vertex 4 {m}

OS:AdditionalProperties,
  {b08a72db-f409-4dd4-86d5-3105ab6e7497}, !- Handle
  {4f666804-dcf9-4caa-b08a-55d13b132cbe}, !- Object Name
  Length,                                 !- Feature Name 1
  Double,                                 !- Feature Data Type 1
  29.393876913398135,                     !- Feature Value 1
  Width,                                  !- Feature Name 2
  Double,                                 !- Feature Data Type 2
  29.393876913398138,                     !- Feature Value 2
  Azimuth,                                !- Feature Name 3
  Integer,                                !- Feature Data Type 3
  0,                                      !- Feature Value 3
  Tilt,                                   !- Feature Name 4
  Double,                                 !- Feature Data Type 4
  0,                                      !- Feature Value 4
  SurfaceType,                            !- Feature Name 5
  String,                                 !- Feature Data Type 5
  Roof;                                   !- Feature Value 5

OS:ThermalZone,
  {e228ff84-f355-415c-9599-ea79a59e075f}, !- Handle
  garage,                                 !- Name
  1,                                      !- Multiplier
  ,                                       !- Ceiling Height {m}
  195.726043643904,                       !- Volume {m3}
  ,                                       !- Floor Area {m2}
  ,                                       !- Zone Inside Convection Algorithm
  ,                                       !- Zone Outside Convection Algorithm
  ,                                       !- Zone Conditioning Equipment List Name
  {83aaa4c5-7884-4860-bcbe-4f34301e59da}, !- Zone Air Inlet Port List
  {b1a7c128-ca7c-4b96-a35b-c3501e5f50f7}, !- Zone Air Exhaust Port List
  {11da479b-ad0d-4411-9923-1a957dd90be2}, !- Zone Air Node Name
  {351c5632-8927-4a66-a48f-d5ff43dcda00}, !- Zone Return Air Port List
  ,                                       !- Primary Daylighting Control Name
  ,                                       !- Fraction of Zone Controlled by Primary Daylighting Control
  ,                                       !- Secondary Daylighting Control Name
  ,                                       !- Fraction of Zone Controlled by Secondary Daylighting Control
  ,                                       !- Illuminance Map Name
  ,                                       !- Group Rendering Name
  ,                                       !- Thermostat Name
  No;                                     !- Use Ideal Air Loads

OS:Node,
  {61b053d5-2a53-42ca-a153-b2f5ecc2edb4}, !- Handle
  Node 2,                                 !- Name
  {11da479b-ad0d-4411-9923-1a957dd90be2}, !- Inlet Port
  ;                                       !- Outlet Port

OS:Connection,
  {11da479b-ad0d-4411-9923-1a957dd90be2}, !- Handle
  {e228ff84-f355-415c-9599-ea79a59e075f}, !- Source Object
  11,                                     !- Outlet Port
  {61b053d5-2a53-42ca-a153-b2f5ecc2edb4}, !- Target Object
  2;                                      !- Inlet Port

OS:PortList,
  {83aaa4c5-7884-4860-bcbe-4f34301e59da}, !- Handle
  {e228ff84-f355-415c-9599-ea79a59e075f}; !- HVAC Component

OS:PortList,
  {b1a7c128-ca7c-4b96-a35b-c3501e5f50f7}, !- Handle
  {e228ff84-f355-415c-9599-ea79a59e075f}; !- HVAC Component

OS:PortList,
  {351c5632-8927-4a66-a48f-d5ff43dcda00}, !- Handle
  {e228ff84-f355-415c-9599-ea79a59e075f}; !- HVAC Component

OS:Sizing:Zone,
  {216f5371-76f0-46d8-bd59-a947446c433c}, !- Handle
  {e228ff84-f355-415c-9599-ea79a59e075f}, !- Zone or ZoneList Name
  SupplyAirTemperature,                   !- Zone Cooling Design Supply Air Temperature Input Method
  14,                                     !- Zone Cooling Design Supply Air Temperature {C}
  11.11,                                  !- Zone Cooling Design Supply Air Temperature Difference {deltaC}
  SupplyAirTemperature,                   !- Zone Heating Design Supply Air Temperature Input Method
  40,                                     !- Zone Heating Design Supply Air Temperature {C}
  11.11,                                  !- Zone Heating Design Supply Air Temperature Difference {deltaC}
  0.0085,                                 !- Zone Cooling Design Supply Air Humidity Ratio {kg-H2O/kg-air}
  0.008,                                  !- Zone Heating Design Supply Air Humidity Ratio {kg-H2O/kg-air}
  ,                                       !- Zone Heating Sizing Factor
  ,                                       !- Zone Cooling Sizing Factor
  DesignDay,                              !- Cooling Design Air Flow Method
  ,                                       !- Cooling Design Air Flow Rate {m3/s}
  ,                                       !- Cooling Minimum Air Flow per Zone Floor Area {m3/s-m2}
  ,                                       !- Cooling Minimum Air Flow {m3/s}
  ,                                       !- Cooling Minimum Air Flow Fraction
  DesignDay,                              !- Heating Design Air Flow Method
  ,                                       !- Heating Design Air Flow Rate {m3/s}
  ,                                       !- Heating Maximum Air Flow per Zone Floor Area {m3/s-m2}
  ,                                       !- Heating Maximum Air Flow {m3/s}
  ,                                       !- Heating Maximum Air Flow Fraction
  No,                                     !- Account for Dedicated Outdoor Air System
  NeutralSupplyAir,                       !- Dedicated Outdoor Air System Control Strategy
  autosize,                               !- Dedicated Outdoor Air Low Setpoint Temperature for Design {C}
  autosize,                               !- Dedicated Outdoor Air High Setpoint Temperature for Design {C}
  Sensible Load Only No Latent Load,      !- Zone Load Sizing Method
  HumidityRatioDifference,                !- Zone Latent Cooling Design Supply Air Humidity Ratio Input Method
  ,                                       !- Zone Dehumidification Design Supply Air Humidity Ratio {kgWater/kgDryAir}
  0.005,                                  !- Zone Cooling Design Supply Air Humidity Ratio Difference {kgWater/kgDryAir}
  HumidityRatioDifference,                !- Zone Latent Heating Design Supply Air Humidity Ratio Input Method
  ,                                       !- Zone Humidification Design Supply Air Humidity Ratio {kgWater/kgDryAir}
  0.005,                                  !- Zone Humidification Design Supply Air Humidity Ratio Difference {kgWater/kgDryAir}
  ,                                       !- Zone Humidistat Dehumidification Set Point Schedule Name
  ,                                       !- Zone Humidistat Humidification Set Point Schedule Name
  ,                                       !- Design Zone Air Distribution Effectiveness in Cooling Mode
  ,                                       !- Design Zone Air Distribution Effectiveness in Heating Mode
  ,                                       !- Design Zone Secondary Recirculation Fraction {dimensionless}
  ,                                       !- Design Minimum Zone Ventilation Efficiency {dimensionless}
  Coincident;                             !- Sizing Option

OS:ZoneHVAC:EquipmentList,
  {647e5ed7-f372-4403-a7af-7f44ca6784c0}, !- Handle
  Zone HVAC Equipment List 2,             !- Name
  {e228ff84-f355-415c-9599-ea79a59e075f}; !- Thermal Zone

OS:AdditionalProperties,
  {fcc95bc0-6a2c-4c81-b709-84451699cbd8}, !- Handle
  {e228ff84-f355-415c-9599-ea79a59e075f}, !- Object Name
  ObjectType,                             !- Feature Name 1
  String,                                 !- Feature Data Type 1
  garage;                                 !- Feature Value 1

OS:Space,
  {b8849895-0c30-446d-a798-d83a160cb489}, !- Handle
  garage 1,                               !- Name
  ,                                       !- Space Type Name
  ,                                       !- Default Construction Set Name
  ,                                       !- Default Schedule Set Name
  ,                                       !- Direction of Relative North {deg}
  ,                                       !- X Origin {m}
  ,                                       !- Y Origin {m}
  ,                                       !- Z Origin {m}
  ,                                       !- Building Story Name
  {e228ff84-f355-415c-9599-ea79a59e075f}, !- Thermal Zone Name
  ,                                       !- Part of Total Floor Area
  ,                                       !- Design Specification Outdoor Air Object Name
  ,                                       !- Building Unit Name
  195.726043643904;                       !- Volume {m3}

OS:Material,
  {aac65836-1277-4e74-a0ee-64dfa784635f}, !- Handle
  asphalt or fiberglass shingles,         !- Name
  Rough,                                  !- Roughness
  0.00635,                                !- Thickness {m}