
OS:Version,
  {b8de74af-49f8-484f-ade2-279e36d88a99}, !- Handle
  3.10.0;                                 !- Version Identifier

OS:SimulationControl,
  {02a2004c-bbf3-4d20-8a44-781385720c43}, !- Handle
  ,                                       !- Do Zone Sizing Calculation
  ,                                       !- Do System Sizing Calculation
  ,                                       !- Do Plant Sizing Calculation
  No;                                     !- Run Simulation for Sizing Periods

OS:Timestep,
  {dc16d1ed-d3cf-4ea9-a7fe-5ca6af6ee479}, !- Handle
  1;                                      !- Number of Timesteps per Hour

OS:ShadowCalculation,
  {0684ff10-97cb-4ed8-8aa2-aa730a2229e1}, !- Handle
  PolygonClipping,                        !- Shading Calculation Method
  ,                                       !- Shading Calculation Update Frequency Method
  20,                                     !- Shading Calculation Update Frequency
  200,                                    !- Maximum Figures in Shadow Overlap Calculations
  ,                                       !- Polygon Clipping Algorithm
  512,                                    !- Pixel Counting Resolution
  ,                                       !- Sky Diffuse Modeling Algorithm
  No,                                     !- Output External Shading Calculation Results
  No,                                     !- Disable Self-Shading Within Shading Zone Groups
  No;                                     !- Disable Self-Shading From Shading Zone Groups to Other Zones

OS:SurfaceConvectionAlgorithm:Outside,
  {4ddbb210-25ba-4c84-9cf8-0cd8b4b7a271}, !- Handle
  DOE-2;                                  !- Algorithm

OS:SurfaceConvectionAlgorithm:Inside,
  {0dcbd48a-4022-48ac-aaf6-2cfee850ce54}, !- Handle
  TARP;                                   !- Algorithm

OS:ZoneCapacitanceMultiplier:ResearchSpecial,
  {a2b55c29-9f7a-43d9-820e-27c9d092a8a8}, !- Handle
  7,                                      !- Temperature Capacity Multiplier
  15,                                     !- Humidity Capacity Multiplier
  ;                                       !- Carbon Dioxide Capacity Multiplier

OS:ConvergenceLimits,
  {1e2d46ca-2028-4ec2-8fbe-55cd0000eda1}, !- Handle
  0;                                      !- Minimum System Timestep {minutes}

OS:RunPeriod,
  {924ac27f-1dfa-4b64-8e78-2b26756f565c}, !- Handle
  Run Period 1,                           !- Name
  1,                                      !- Begin Month
  1,                                      !- Begin Day of Month
  12,                                     !- End Month
  31,                                     !- End Day of Month
  ,                                       !- Use Weather File Holidays and Special Days
  ,                                       !- Use Weather File Daylight Saving Period
  ,                                       !- Apply Weekend Holiday Rule
  ,                                       !- Use Weather File Rain Indicators
  ,                                       !- Use Weather File Snow Indicators
  ;                                       !- Number of Times Runperiod to be Repeated

OS:PerformancePrecisionTradeoffs,
  {9f4e54de-5c4b-4034-a495-f68c2887f47a}, !- Handle
  ,                                       !- Use Coil Direct Solutions
  CarrollMRT;                             !- Zone Radiant Exchange Algorithm

OS:WeatherFile,
  {b3be80eb-7f5e-437b-aa9c-641963dfa577}, !- Handle
  Buffalo Niagara Intl Ap,                !- City
  NY,                                     !- State Province Region
  USA,                                    !- Country
  TMY3,                                   !- Data Source
  725280,                                 !- WMO Number
  42.93,                                  !- Latitude {deg}
  -78.73,                                 !- Longitude {deg}
  -5,                                     !- Time Zone {hr}
  215,                                    !- Elevation {m}
  /Users/nmoore/github/urbanopt-example-geojson-project/example_project/weather/USA_NY_Buffalo-Greater.Buffalo.Intl.AP.725280_TMY3.epw, !- Url
  6B50E0FF,                               !- Checksum
  ,                                       !- Start Date Actual Year
  Sunday;                                 !- Start Day of Week

OS:YearDescription,
  {7fb4a35b-5fc6-4d1d-8d2c-4c47f3850141}, !- Handle
  2007,                                   !- Calendar Year
  ,                                       !- Day of Week for Start Day
  ;                                       !- Is Leap Year

OS:Site,
  {cd5a96d3-b309-47e2-980b-9f47df47c9c8}, !- Handle
  Buffalo Niagara Intl Ap_NY,             !- Name
  42.93,                                  !- Latitude {deg}
  -78.73,                                 !- Longitude {deg}
  -5,                                     !- Time Zone {hr}
  215,                                    !- Elevation {m}
  Suburbs,                                !- Terrain
  Yes;                                    !- Keep Site Location Information

OS:RunPeriodControl:DaylightSavingTime,
  {58c7f2b8-fe90-4f44-8767-8dd4c1a5f69c}, !- Handle
  Mar 12,                                 !- Start Date
  Nov 5;                                  !- End Date

OS:Site:GroundTemperature:Shallow,
  {d7850a0b-1636-4cfe-b106-4a65942ce4c4}, !- Handle
  4.30207395723828,                       !- January Surface Ground Temperature {C}
  2.29327249652502,                       !- February Surface Ground Temperature {C}
  2.13240047156047,                       !- March Surface Ground Temperature {C}
  3.08567940719286,                       !- April Surface Ground Temperature {C}
  6.91256312497526,                       !- May Surface Ground Temperature {C}
  10.7216195949507,                       !- June Surface Ground Temperature {C}
  14.0238679822574,                       !- July Surface Ground Temperature {C}
  16.1157611184724,                       !- August Surface Ground Temperature {C}
  16.2934789303462,                       !- September Surface Ground Temperature {C}
  14.5920754632847,                       !- October Surface Ground Temperature {C}
  11.374036348653,                        !- November Surface Ground Temperature {C}
  7.68182621661674;                       !- December Surface Ground Temperature {C}

OS:ThermalZone,
  {96b79d9c-a54d-4fda-8080-3176035f9c2e}, !- Handle
  conditioned space,                      !- Name
  1,                                      !- Multiplier
  ,                                       !- Ceiling Height {m}
  692.06373070848,                        !- Volume {m3}
  ,                                       !- Floor Area {m2}
  ,                                       !- Zone Inside Convection Algorithm
  ,                                       !- Zone Outside Convection Algorithm
  ,                                       !- Zone Conditioning Equipment List Name
  {4ef2fdd3-b398-41ad-a5d4-b5e85133e691}, !- Zone Air Inlet Port List
  {6dc7cb15-862c-4f53-a386-eca96a11740e}, !- Zone Air Exhaust Port List
  {7c63731d-87a5-4d8d-910a-ce705c9f3acc}, !- Zone Air Node Name
  {e118af23-b499-435b-b281-52d08ac1a8d5}, !- Zone Return Air Port List
  ,                                       !- Primary Daylighting Control Name
  ,                                       !- Fraction of Zone Controlled by Primary Daylighting Control
  ,                                       !- Secondary Daylighting Control Name
  ,                                       !- Fraction of Zone Controlled by Secondary Daylighting Control
  ,                                       !- Illuminance Map Name
  ,                                       !- Group Rendering Name
  {b785cc6e-567c-4fda-b153-132ca316b7c9}, !- Thermostat Name
  No;                                     !- Use Ideal Air Loads

OS:Node,
  {91c78398-5e38-4a3e-9845-6af210f2830e}, !- Handle
  Node 1,                                 !- Name
  {7c63731d-87a5-4d8d-910a-ce705c9f3acc}, !- Inlet Port
  ;                                       !- Outlet Port

OS:Connection,
  {7c63731d-87a5-4d8d-910a-ce705c9f3acc}, !- Handle
  {96b79d9c-a54d-4fda-8080-3176035f9c2e}, !- Source Object
  11,                                     !- Outlet Port
  {91c78398-5e38-4a3e-9845-6af210f2830e}, !- Target Object
  2;                                      !- Inlet Port

OS:PortList,
  {4ef2fdd3-b398-41ad-a5d4-b5e85133e691}, !- Handle
  {96b79d9c-a54d-4fda-8080-3176035f9c2e}, !- HVAC Component
  {9f10d47e-bea8-4102-b120-8be32935a456}, !- Port 1
  {cbc2d772-7b40-474b-aac9-f348ccb29d43}; !- Port 2

OS:PortList,
  {6dc7cb15-862c-4f53-a386-eca96a11740e}, !- Handle
  {96b79d9c-a54d-4fda-8080-3176035f9c2e}, !- HVAC Component
  {07f39aae-4a03-4cb3-9ec1-638104fcc164}; !- Port 1

OS:PortList,
  {e118af23-b499-435b-b281-52d08ac1a8d5}, !- Handle
  {96b79d9c-a54d-4fda-8080-3176035f9c2e}, !- HVAC Component
  {d3235964-c423-4fb2-b72a-5a1607839bbf}; !- Port 1

OS:Sizing:Zone,
  {25f5a7f9-6fca-4ad5-8b20-378b5bf5e049}, !- Handle
  {96b79d9c-a54d-4fda-8080-3176035f9c2e}, !- Zone or ZoneList Name
  SupplyAirTemperature,                   !- Zone Cooling Design Supply Air Temperature Input Method
  14,                                     !- Zone Cooling Design Supply Air Temperature {C}
  11.11,                                  !- Zone Cooling Design Supply Air Temperature Difference {deltaC}
  SupplyAirTemperature,                   !- Zone Heating Design Supply Air Temperature Input Method
  40,                                     !- Zone Heating Design Supply Air Temperature {C}
  11.11,                                  !- Zone Heating Design Supply Air Temperature Difference {deltaC}
  0.0085,                                 !- Zone Cooling Design Supply Air Humidity Ratio {kg-H2O/kg-air}
  0.008,                                  !- Zone Heating Design Supply Air Humidity Ratio {kg-H2O/kg-air}
  ,                                       !- Zone Heating Sizing Factor
  ,                                       !- Zone Cooling Sizing Factor
  DesignDay,                              !- Cooling Design Air Flow Method
  ,                                       !- Cooling Design Air Flow Rate {m3/s}
  ,                                       !- Cooling Minimum Air Flow per Zone Floor Area {m3/s-m2}
  ,                                       !- Cooling Minimum Air Flow {m3/s}
  ,                                       !- Cooling Minimum Air Flow Fraction
  DesignDay,                              !- Heating Design Air Flow Method
  ,                                       !- Heating Design Air Flow Rate {m3/s}
  ,                                       !- Heating Maximum Air Flow per Zone Floor Area {m3/s-m2}
  ,                                       !- Heating Maximum Air Flow {m3/s}
  ,                                       !- Heating Maximum Air Flow Fraction
  No,                                     !- Account for Dedicated Outdoor Air System
  NeutralSupplyAir,                       !- Dedicated Outdoor Air System Control Strategy
  autosize,                               !- Dedicated Outdoor Air Low Setpoint Temperature for Design {C}
  autosize,                               !- Dedicated Outdoor Air High Setpoint Temperature for Design {C}
  Sensible Load Only No Latent Load,      !- Zone Load Sizing Method
  HumidityRatioDifference,                !- Zone Latent Cooling Design Supply Air Humidity Ratio Input Method
  ,                                       !- Zone Dehumidification Design Supply Air Humidity Ratio {kgWater/kgDryAir}
  0.005,                                  !- Zone Cooling Design Supply Air Humidity Ratio Difference {kgWater/kgDryAir}
  HumidityRatioDifference,                !- Zone Latent Heating Design Supply Air Humidity Ratio Input Method
  ,                                       !- Zone Humidification Design Supply Air Humidity Ratio {kgWater/kgDryAir}
  0.005,                                  !- Zone Humidification Design Supply Air Humidity Ratio Difference {kgWater/kgDryAir}
  ,                                       !- Zone Humidistat Dehumidification Set Point Schedule Name
  ,                                       !- Zone Humidistat Humidification Set Point Schedule Name
  ,                                       !- Design Zone Air Distribution Effectiveness in Cooling Mode
  ,                                       !- Design Zone Air Distribution Effectiveness in Heating Mode
  ,                                       !- Design Zone Secondary Recirculation Fraction {dimensionless}
  ,                                       !- Design Minimum Zone Ventilation Efficiency {dimensionless}
  Coincident;                             !- Sizing Option

OS:ZoneHVAC:EquipmentList,
  {5322b9da-ca83-4aaa-9166-452f1a4eb7c4}, !- Handle
  Zone HVAC Equipment List 1,             !- Name
  {96b79d9c-a54d-4fda-8080-3176035f9c2e}, !- Thermal Zone
  ,                                       !- Load Distribution Scheme
  {5991c797-7077-4c1f-b51f-43976e8f8b64}, !- Zone Equipment 1
  1,                                      !- Zone Equipment Cooling Sequence 1
  1,                                      !- Zone Equipment Heating or No-Load Sequence 1
  {955a04c2-dfae-43e4-b2d5-6ee01a063ddd}, !- Zone Equipment Sequential Cooling Fraction Schedule Name 1
  {aa35a75b-1147-4218-8570-91a77eb1559f}, !- Zone Equipment Sequential Heating Fraction Schedule Name 1
  {47247ad8-1f36-4f4c-9c7e-0ac5852ff9a3}, !- Zone Equipment 2
  2,                                      !- Zone Equipment Cooling Sequence 2
  2,                                      !- Zone Equipment Heating or No-Load Sequence 2
  {70a7d10f-a854-454b-a89e-f4be1f0e20ef}, !- Zone Equipment Sequential Cooling Fraction Schedule Name 2
  {66b47911-f20b-4474-ac3b-903fb1e9ed81}; !- Zone Equipment Sequential Heating Fraction Schedule Name 2

OS:AdditionalProperties,
  {1b1f44ee-4dbe-48d9-926a-06cfd6fa3e89}, !- Handle
  {96b79d9c-a54d-4fda-8080-3176035f9c2e}, !- Object Name
  ObjectType,                             !- Feature Name 1
  String,                                 !- Feature Data Type 1
  conditioned space;                      !- Feature Value 1

OS:Space,
  {0188ddcb-8893-4667-a98b-438917e3a01b}, !- Handle
  conditioned space 1,                    !- Name
  ,                                       !- Space Type Name
  ,                                       !- Default Construction Set Name
  ,                                       !- Default Schedule Set Name
  ,                                       !- Direction of Relative North {deg}
  ,                                       !- X Origin {m}
  ,                                       !- Y Origin {m}
  ,                                       !- Z Origin {m}
  ,                                       !- Building Story Name
  {96b79d9c-a54d-4fda-8080-3176035f9c2e}, !- Thermal Zone Name
  ,                                       !- Part of Total Floor Area
  ,                                       !- Design Specification Outdoor Air Object Name
  ,                                       !- Building Unit Name
  692.06373070848;                        !- Volume {m3}

OS:Schedule:Ruleset,
  {06f4791f-b871-4c46-93f5-015fc4bcd460}, !- Handle
  heating setpoint,                       !- Name
  {8945b581-cb33-4f5a-912a-43d5d52c2c8f}, !- Schedule Type Limits Name
  {05d73f2d-c949-4ab8-89c2-f3f3881e695c}; !- Default Day Schedule Name

OS:Schedule:Day,
  {05d73f2d-c949-4ab8-89c2-f3f3881e695c}, !- Handle
  heating setpoint default day,           !- Name
  {8945b581-cb33-4f5a-912a-43d5d52c2c8f}, !- Schedule Type Limits Name
  ,                                       !- Interpolate to Timestep
  24,                                     !- Hour 1
  0,                                      !- Minute 1
  0;                                      !- Value Until Time 1

OS:Schedule:Rule,
  {86b1e95d-d15e-40f7-9625-cc5552a3542a}, !- Handle
  heating setpoint allday rule,           !- Name
  {06f4791f-b871-4c46-93f5-015fc4bcd460}, !- Schedule Ruleset Name
  0,                                      !- Rule Order
  {74a7f74f-111b-4325-b2d8-c8a1a715c4e2}, !- Day Schedule Name
  Yes,                                    !- Apply Sunday
  Yes,                                    !- Apply Monday
  Yes,                                    !- Apply Tuesday
  Yes,                                    !- Apply Wednesday
  Yes,                                    !- Apply Thursday
  Yes,                                    !- Apply Friday
  Yes,                                    !- Apply Saturday
  DateRange,                              !- Date Specification Type
  1,                                      !- Start Month
  1,                                      !- Start Day
  12,                                     !- End Month
  31;                                     !- End Day

OS:Schedule:Day,
  {74a7f74f-111b-4325-b2d8-c8a1a715c4e2}, !- Handle
  heating setpoint day,                   !- Name
  {8945b581-cb33-4f5a-912a-43d5d52c2c8f}, !- Schedule Type Limits Name
  ,                                       !- Interpolate to Timestep
  3,                                      !- Hour 1
  0,                                      !- Minute 1
  18.6111111111111,                       !- Value Until Time 1
  18,                                     !- Hour 2
  0,                                      !- Minute 2
  21.1111111111111,                       !- Value Until Time 2
  24,                                     !- Hour 3
  0,                                      !- Minute 3
  18.6111111111111;                       !- Value Until Time 3

OS:Schedule:Ruleset,
  {ad98bc06-2111-4b53-a903-99d77d096964}, !- Handle
  cooling setpoint,                       !- Name
  {8945b581-cb33-4f5a-912a-43d5d52c2c8f}, !- Schedule Type Limits Name
  {98816bca-46f0-4368-9bfa-2cd14eaef02a}; !- Default Day Schedule Name

OS:Schedule:Day,
  {98816bca-46f0-4368-9bfa-2cd14eaef02a}, !- Handle
  cooling setpoint default day,           !- Name
  {8945b581-cb33-4f5a-912a-43d5d52c2c8f}, !- Schedule Type Limits Name
  ,                                       !- Interpolate to Timestep
  24,                                     !- Hour 1
  0,                                      !- Minute 1
  0;                                      !- Value Until Time 1

OS:Schedule:Rule,
  {c77bc659-374e-46e4-87e8-f5c715a2f6dd}, !- Handle
  cooling setpoint allday rule,           !- Name
  {ad98bc06-2111-4b53-a903-99d77d096964}, !- Schedule Ruleset Name
  0,                                      !- Rule Order
  {e8f58eb0-e29b-47cc-954d-a756a529a5c8}, !- Day Schedule Name
  Yes,                                    !- Apply Sunday
  Yes,                                    !- Apply Monday
  Yes,                                    !- Apply Tuesday
  Yes,                                    !- Apply Wednesday
  Yes,                                    !- Apply Thursday
  Yes,                                    !- Apply Friday
  Yes,                                    !- Apply Saturday
  DateRange,                              !- Date Specification Type
  1,                                      !- Start Month
  1,                                      !- Start Day
  12,                                     !- End Month
  31;                                     !- End Day

OS:Schedule:Day,
  {e8f58eb0-e29b-47cc-954d-a756a529a5c8}, !- Handle
  cooling setpoint day,                   !- Name
  {8945b581-cb33-4f5a-912a-43d5d52c2c8f}, !- Schedule Type Limits Name
  ,                                       !- Interpolate to Timestep
  3,                                      !- Hour 1
  0,                                      !- Minute 1
  18.6111111111111,                       !- Value Until Time 1
  18,                                     !- Hour 2
  0,                                      !- Minute 2
  21.1111111111111,                       !- Value Until Time 2
  24,                                     !- Hour 3
  0,                                      !- Minute 3
  18.6111111111111;                       !- Value Until Time 3

OS:ThermostatSetpoint:DualSetpoint,
  {b785cc6e-567c-4fda-b153-132ca316b7c9}, !- Handle
  conditioned space temperature setpoint, !- Name
  {06f4791f-b871-4c46-93f5-015fc4bcd460}, !- Heating Setpoint Temperature Schedule Name
  {ad98bc06-2111-4b53-a903-99d77d096964}, !- Cooling Setpoint Temperature Schedule Name
  0;                                      !- Temperature Difference Between Cutout And Setpoint {deltaC}

OS:ScheduleTypeLimits,
  {8945b581-cb33-4f5a-912a-43d5d52c2c8f}, !- Handle
  Temperature,                            !- Name
  ,                                       !- Lower Limit Value
  ,                                       !- Upper Limit Value
  Continuous,                             !- Numeric Type
  Temperature;                            !- Unit Type

OS:Surface,
  {b80ee29b-1094-468f-b0ce-79f8029c87eb}, !- Handle
  Roof1,                                  !- Name
  RoofCeiling,                            !- Surface Type
  {002f115b-fda8-4e7f-8a9f-0173c6e15591}, !- Construction Name
  {1368771d-1d2e-4e47-94ed-62689f453263}, !- Space Name
  Outdoors,                               !- Outside Boundary Condition
  ,                                       !- Outside Boundary Condition Object
  SunExposed,                             !- Sun Exposure
  WindExposed,                            !- Wind Exposure
  ,                                       !- View Factor to Ground
  ,                                       !- Number of Vertices
  -32.8379822696108, 62.9989465465339, 2.7432, !- X,Y,Z Vertex 1 {m}
  -32.8379822696108, 51.2136268257287, 8.6358598604026, !- X,Y,Z Vertex 2 {m}
  -19.6615942534661, 51.2136268257287, 8.6358598604026, !- X,Y,Z Vertex 3 {m}
  -19.6615942534661, 62.9989465465339, 2.7432; !- X,Y,Z Vertex 4 {m}

OS:AdditionalProperties,
  {a4b0f596-9544-49fb-b54c-8b19fd5b2f6c}, !- Handle
  {b80ee29b-1094-468f-b0ce-79f8029c87eb}, !- Object Name
  Length,                                 !- Feature Name 1
  Double,                                 !- Feature Data Type 1
  43.229619475540147,                     !- Feature Value 1
  Width,                                  !- Feature Name 2
  Double,                                 !- Feature Data Type 2
  43.229619475540147,                     !- Feature Value 2
  Azimuth,                                !- Feature Name 3
  Integer,                                !- Feature Data Type 3
  0,                                      !- Feature Value 3
  Tilt,                                   !- Feature Name 4
  Double,                                 !- Feature Data Type 4
  0.5,                                    !- Feature Value 4
  SurfaceType,                            !- Feature Name 5
  String,                                 !- Feature Data Type 5
  Roof;                                   !- Feature Value 5

OS:ThermalZone,
  {6c3fb930-36ea-4779-9024-921d48816443}, !- Handle
  attic - vented,                         !- Name
  1,                                      !- Multiplier
  ,                                       !- Ceiling Height {m}
  461.796876858038,                       !- Volume {m3}
  ,                                       !- Floor Area {m2}
  ,                                       !- Zone Inside Convection Algorithm
  ,                                       !- Zone Outside Convection Algorithm
  ,                                       !- Zone Conditioning Equipment List Name
  {089770a0-b346-4286-bfb1-1836980002be}, !- Zone Air Inlet Port List
  {d1708756-0edf-4bc3-9e37-ae1ff54ef0a4}, !- Zone Air Exhaust Port List
  {edd0ba4e-b5ad-41fd-8078-e6124652eb85}, !- Zone Air Node Name
  {f806a9ed-7ad0-4593-aee9-30a5f48b0886}, !- Zone Return Air Port List
  ,                                       !- Primary Daylighting Control Name
  ,                                       !- Fraction of Zone Controlled by Primary Daylighting Control
  ,                                       !- Secondary Daylighting Control Name
  ,                                       !- Fraction of Zone Controlled by Secondary Daylighting Control
  ,                                       !- Illuminance Map Name
  ,                                       !- Group Rendering Name
  ,                                       !- Thermostat Name
  No;                                     !- Use Ideal Air Loads

OS:Node,
  {e3510ccc-60cb-4dc6-8f35-0a9b1a732ada}, !- Handle
  Node 2,                                 !- Name
  {edd0ba4e-b5ad-41fd-8078-e6124652eb85}, !- Inlet Port
  ;                                       !- Outlet Port

OS:Connection,
  {edd0ba4e-b5ad-41fd-8078-e6124652eb85}, !- Handle
  {6c3fb930-36ea-4779-9024-921d48816443}, !- Source Object
  11,                                     !- Outlet Port
  {e3510ccc-60cb-4dc6-8f35-0a9b1a732ada}, !- Target Object
  2;                                      !- Inlet Port

OS:PortList,
  {089770a0-b346-4286-bfb1-1836980002be}, !- Handle
  {6c3fb930-36ea-4779-9024-921d48816443}; !- HVAC Component

OS:PortList,
  {d1708756-0edf-4bc3-9e37-ae1ff54ef0a4}, !- Handle
  {6c3fb930-36ea-4779-9024-921d48816443}; !- HVAC Component

OS:PortList,
  {f806a9ed-7ad0-4593-aee9-30a5f48b0886}, !- Handle
  {6c3fb930-36ea-4779-9024-921d48816443}; !- HVAC Component

OS:Sizing:Zone,
  {68be0c59-5d59-4755-9e68-e5ac7fa15a39}, !- Handle
  {6c3fb930-36ea-4779-9024-921d48816443}, !- Zone or ZoneList Name
  SupplyAirTemperature,                   !- Zone Cooling Design Supply Air Temperature Input Method
  14,                                     !- Zone Cooling Design Supply Air Temperature {C}
  11.11,                                  !- Zone Cooling Design Supply Air Temperature Difference {deltaC}
  SupplyAirTemperature,                   !- Zone Heating Design Supply Air Temperature Input Method
  40,                                     !- Zone Heating Design Supply Air Temperature {C}
  11.11,                                  !- Zone Heating Design Supply Air Temperature Difference {deltaC}
  0.0085,                                 !- Zone Cooling Design Supply Air Humidity Ratio {kg-H2O/kg-air}
  0.008,                                  !- Zone Heating Design Supply Air Humidity Ratio {kg-H2O/kg-air}
  ,                                       !- Zone Heating Sizing Factor
  ,                                       !- Zone Cooling Sizing Factor
  DesignDay,                              !- Cooling Design Air Flow Method
  ,                                       !- Cooling Design Air Flow Rate {m3/s}
  ,                                       !- Cooling Minimum Air Flow per Zone Floor Area {m3/s-m2}
  ,                                       !- Cooling Minimum Air Flow {m3/s}
  ,                                       !- Cooling Minimum Air Flow Fraction
  DesignDay,                              !- Heating Design Air Flow Method
  ,                                       !- Heating Design Air Flow Rate {m3/s}
  ,                                       !- Heating Maximum Air Flow per Zone Floor Area {m3/s-m2}
  ,                                       !- Heating Maximum Air Flow {m3/s}
  ,                                       !- Heating Maximum Air Flow Fraction
  No,                                     !- Account for Dedicated Outdoor Air System
  NeutralSupplyAir,                       !- Dedicated Outdoor Air System Control Strategy
  autosize,                               !- Dedicated Outdoor Air Low Setpoint Temperature for Design {C}
  autosize,                               !- Dedicated Outdoor Air High Setpoint Temperature for Design {C}
  Sensible Load Only No Latent Load,      !- Zone Load Sizing Method
  HumidityRatioDifference,                !- Zone Latent Cooling Design Supply Air Humidity Ratio Input Method
  ,                                       !- Zone Dehumidification Design Supply Air Humidity Ratio {kgWater/kgDryAir}
  0.005,                                  !- Zone Cooling Design Supply Air Humidity Ratio Difference {kgWater/kgDryAir}
  HumidityRatioDifference,                !- Zone Latent Heating Design Supply Air Humidity Ratio Input Method
  ,                                       !- Zone Humidification Design Supply Air Humidity Ratio {kgWater/kgDryAir}
  0.005,                                  !- Zone Humidification Design Supply Air Humidity Ratio Difference {kgWater/kgDryAir}
  ,                                       !- Zone Humidistat Dehumidification Set Point Schedule Name
  ,                                       !- Zone Humidistat Humidification Set Point Schedule Name
  ,                                       !- Design Zone Air Distribution Effectiveness in Cooling Mode
  ,                                       !- Design Zone Air Distribution Effectiveness in Heating Mode
  ,                                       !- Design Zone Secondary Recirculation Fraction {dimensionless}
  ,                                       !- Design Minimum Zone Ventilation Efficiency {dimensionless}
  Coincident;                             !- Sizing Option

OS:ZoneHVAC:EquipmentList,
  {2c27bd78-c021-4bee-84a4-faf58dfdadac}, !- Handle
  Zone HVAC Equipment List 2,             !- Name
  {6c3fb930-36ea-4779-9024-921d48816443}; !- Thermal Zone

OS:AdditionalProperties,
  {4173e36d-5bb5-44b9-aaee-3b56d6f8a0d9}, !- Handle
  {6c3fb930-36ea-4779-9024-921d48816443}, !- Object Name
  ObjectType,                             !- Feature Name 1
  String,                                 !- Feature Data Type 1
  attic - vented;                         !- Feature Value 1

OS:Space,
  {1368771d-1d2e-4e47-94ed-62689f453263}, !- Handle
  attic - vented 1,                       !- Name
  ,                                       !- Space Type Name
  ,                                       !- Default Construction Set Name
  ,                                       !- Default Schedule Set Name