
OS:Version,
  {a2ecbbe1-faf5-4bd2-9095-4e0e6babe6ac}, !- Handle
  3.10.0;                                 !- Version Identifier

OS:SimulationControl,
  {c03aefa6-2daa-424f-81db-dcf45e22520c}, !- Handle
  ,                                       !- Do Zone Sizing Calculation
  ,                                       !- Do System Sizing Calculation
  ,                                       !- Do Plant Sizing Calculation
  No;                                     !- Run Simulation for Sizing Periods

OS:Timestep,
  {ed592555-8d97-4743-81e2-03ae32e7b495}, !- Handle
  1;                                      !- Number of Timesteps per Hour

OS:ShadowCalculation,
  {1f62f66d-53f0-43ef-878c-05535a4429cf}, !- Handle
  PolygonClipping,                        !- Shading Calculation Method
  ,                                       !- Shading Calculation Update Frequency Method
  20,                                     !- Shading Calculation Update Frequency
  200,                                    !- Maximum Figures in Shadow Overlap Calculations
  ,                                       !- Polygon Clipping Algorithm
  512,                                    !- Pixel Counting Resolution
  ,                                       !- Sky Diffuse Modeling Algorithm
  No,                                     !- Output External Shading Calculation Results
  No,                                     !- Disable Self-Shading Within Shading Zone Groups
  No;                                     !- Disable Self-Shading From Shading Zone Groups to Other Zones

OS:SurfaceConvectionAlgorithm:Outside,
  {3473ee6f-e5da-492b-a27b-d84f77d5ee8d}, !- Handle
  DOE-2;                                  !- Algorithm

OS:SurfaceConvectionAlgorithm:Inside,
  {db606e08-abc3-4b1a-85d7-a359c53dbbb6}, !- Handle
  TARP;                                   !- Algorithm

OS:ZoneCapacitanceMultiplier:ResearchSpecial,
  {54c1b7b9-4e38-4e24-b26d-23a37b483288}, !- Handle
  7,                                      !- Temperature Capacity Multiplier
  15,                                     !- Humidity Capacity Multiplier
  ;                                       !- Carbon Dioxide Capacity Multiplier

OS:ConvergenceLimits,
  {e55c3efc-e28d-4226-9c00-31818c445697}, !- Handle
  0;                                      !- Minimum System Timestep {minutes}

OS:RunPeriod,
  {8043b65a-af46-4284-b4ae-73a08817f210}, !- Handle
  Run Period 1,                           !- Name
  1,                                      !- Begin Month
  1,                                      !- Begin Day of Month
  12,                                     !- End Month
  31,                                     !- End Day of Month
  ,                                       !- Use Weather File Holidays and Special Days
  ,                                       !- Use Weather File Daylight Saving Period
  ,                                       !- Apply Weekend Holiday Rule
  ,                                       !- Use Weather File Rain Indicators
  ,                                       !- Use Weather File Snow Indicators
  ;                                       !- Number of Times Runperiod to be Repeated

OS:PerformancePrecisionTradeoffs,
  {dbbbe71a-1cd6-4942-8add-f60f982284d5}, !- Handle
  ,                                       !- Use Coil Direct Solutions
  CarrollMRT;                             !- Zone Radiant Exchange Algorithm

OS:WeatherFile,
  {656d93f9-4e0d-481e-9467-f1668b60629f}, !- Handle
  Buffalo Niagara Intl Ap,                !- City
  NY,                                     !- State Province Region
  USA,                                    !- Country
  TMY3,                                   !- Data Source
  725280,                                 !- WMO Number
  42.93,                                  !- Latitude {deg}
  -78.73,                                 !- Longitude {deg}
  -5,                                     !- Time Zone {hr}
  215,                                    !- Elevation {m}
  /Users/nmoore/github/urbanopt-example-geojson-project/example_project/weather/USA_NY_Buffalo-Greater.Buffalo.Intl.AP.725280_TMY3.epw, !- Url
  6B50E0FF,                               !- Checksum
  ,                                       !- Start Date Actual Year
  Sunday;                                 !- Start Day of Week

OS:YearDescription,
  {a7d06c67-382c-4619-8950-39279e0bf49c}, !- Handle
  2007,                                   !- Calendar Year
  ,                                       !- Day of Week for Start Day
  ;                                       !- Is Leap Year

OS:Site,
  {d62dae05-bdd1-4475-bb92-c74741c865bf}, !- Handle
  Buffalo Niagara Intl Ap_NY,             !- Name
  42.93,                                  !- Latitude {deg}
  -78.73,                                 !- Longitude {deg}
  -5,                                     !- Time Zone {hr}
  215,                                    !- Elevation {m}
  Suburbs,                                !- Terrain
  Yes;                                    !- Keep Site Location Information

OS:RunPeriodControl:DaylightSavingTime,
  {58521f55-33df-43fd-bb46-ba47e2ae47f8}, !- Handle
  Mar 12,                                 !- Start Date
  Nov 5;                                  !- End Date

OS:Site:GroundTemperature:Shallow,
  {d3d01d62-74b9-498c-a325-6ca4c3720e4b}, !- Handle
  4.30207395723828,                       !- January Surface Ground Temperature {C}
  2.29327249652502,                       !- February Surface Ground Temperature {C}
  2.13240047156047,                       !- March Surface Ground Temperature {C}
  3.08567940719286,                       !- April Surface Ground Temperature {C}
  6.91256312497526,                       !- May Surface Ground Temperature {C}
  10.7216195949507,                       !- June Surface Ground Temperature {C}
  14.0238679822574,                       !- July Surface Ground Temperature {C}
  16.1157611184724,                       !- August Surface Ground Temperature {C}
  16.2934789303462,                       !- September Surface Ground Temperature {C}
  14.5920754632847,                       !- October Surface Ground Temperature {C}
  11.374036348653,                        !- November Surface Ground Temperature {C}
  7.68182621661674;                       !- December Surface Ground Temperature {C}

OS:ThermalZone,
  {02276fce-3546-4be3-89d6-7cb51673d578}, !- Handle
  conditioned space,                      !- Name
  1,                                      !- Multiplier
  ,                                       !- Ceiling Height {m}
  692.06373070848,                        !- Volume {m3}
  ,                                       !- Floor Area {m2}
  ,                                       !- Zone Inside Convection Algorithm
  ,                                       !- Zone Outside Convection Algorithm
  ,                                       !- Zone Conditioning Equipment List Name
  {450a6cf8-2bef-423a-93b5-cb36fabe7c2b}, !- Zone Air Inlet Port List
  {78b8b6bf-faf5-41da-9e80-e283ebf381a4}, !- Zone Air Exhaust Port List
  {18f5619f-5bb1-45ef-9e61-b26fe3a4ce39}, !- Zone Air Node Name
  {caeca844-f8a3-4262-8d70-e29ad906616c}, !- Zone Return Air Port List
  ,                                       !- Primary Daylighting Control Name
  ,                                       !- Fraction of Zone Controlled by Primary Daylighting Control
  ,                                       !- Secondary Daylighting Control Name
  ,                                       !- Fraction of Zone Controlled by Secondary Daylighting Control
  ,                                       !- Illuminance Map Name
  ,                                       !- Group Rendering Name
  {3cb784a7-9080-4097-ba1f-459fc640d104}, !- Thermostat Name
  No;                                     !- Use Ideal Air Loads

OS:Node,
  {eee0e69e-587b-4402-86a4-43ad6d9f140e}, !- Handle
  Node 1,                                 !- Name
  {18f5619f-5bb1-45ef-9e61-b26fe3a4ce39}, !- Inlet Port
  ;                                       !- Outlet Port

OS:Connection,
  {18f5619f-5bb1-45ef-9e61-b26fe3a4ce39}, !- Handle
  {02276fce-3546-4be3-89d6-7cb51673d578}, !- Source Object
  11,                                     !- Outlet Port
  {eee0e69e-587b-4402-86a4-43ad6d9f140e}, !- Target Object
  2;                                      !- Inlet Port

OS:PortList,
  {450a6cf8-2bef-423a-93b5-cb36fabe7c2b}, !- Handle
  {02276fce-3546-4be3-89d6-7cb51673d578}, !- HVAC Component
  {7b2f9837-8a06-443c-9ce7-0201cb038acb}, !- Port 1
  {9895526f-f8da-4442-a871-d9fea4a2a7d4}; !- Port 2

OS:PortList,
  {78b8b6bf-faf5-41da-9e80-e283ebf381a4}, !- Handle
  {02276fce-3546-4be3-89d6-7cb51673d578}; !- HVAC Component

OS:PortList,
  {caeca844-f8a3-4262-8d70-e29ad906616c}, !- Handle
  {02276fce-3546-4be3-89d6-7cb51673d578}, !- HVAC Component
  {541f57cf-1ef4-48ed-a2d2-674bcc5b44fe}, !- Port 1
  {30c51ea1-59c3-4c49-8685-5dc793a2514a}; !- Port 2

OS:Sizing:Zone,
  {16331129-a523-4910-b990-6db58edcd1e8}, !- Handle
  {02276fce-3546-4be3-89d6-7cb51673d578}, !- Zone or ZoneList Name
  SupplyAirTemperature,                   !- Zone Cooling Design Supply Air Temperature Input Method
  14,                                     !- Zone Cooling Design Supply Air Temperature {C}
  11.11,                                  !- Zone Cooling Design Supply Air Temperature Difference {deltaC}
  SupplyAirTemperature,                   !- Zone Heating Design Supply Air Temperature Input Method
  40,                                     !- Zone Heating Design Supply Air Temperature {C}
  11.11,                                  !- Zone Heating Design Supply Air Temperature Difference {deltaC}
  0.0085,                                 !- Zone Cooling Design Supply Air Humidity Ratio {kg-H2O/kg-air}
  0.008,                                  !- Zone Heating Design Supply Air Humidity Ratio {kg-H2O/kg-air}
  ,                                       !- Zone Heating Sizing Factor
  ,                                       !- Zone Cooling Sizing Factor
  DesignDay,                              !- Cooling Design Air Flow Method
  ,                                       !- Cooling Design Air Flow Rate {m3/s}
  ,                                       !- Cooling Minimum Air Flow per Zone Floor Area {m3/s-m2}
  ,                                       !- Cooling Minimum Air Flow {m3/s}
  ,                                       !- Cooling Minimum Air Flow Fraction
  DesignDay,                              !- Heating Design Air Flow Method
  ,                                       !- Heating Design Air Flow Rate {m3/s}
  ,                                       !- Heating Maximum Air Flow per Zone Floor Area {m3/s-m2}
  ,                                       !- Heating Maximum Air Flow {m3/s}
  ,                                       !- Heating Maximum Air Flow Fraction
  No,                                     !- Account for Dedicated Outdoor Air System
  NeutralSupplyAir,                       !- Dedicated Outdoor Air System Control Strategy
  autosize,                               !- Dedicated Outdoor Air Low Setpoint Temperature for Design {C}
  autosize,                               !- Dedicated Outdoor Air High Setpoint Temperature for Design {C}
  Sensible Load Only No Latent Load,      !- Zone Load Sizing Method
  HumidityRatioDifference,                !- Zone Latent Cooling Design Supply Air Humidity Ratio Input Method
  ,                                       !- Zone Dehumidification Design Supply Air Humidity Ratio {kgWater/kgDryAir}
  0.005,                                  !- Zone Cooling Design Supply Air Humidity Ratio Difference {kgWater/kgDryAir}
  HumidityRatioDifference,                !- Zone Latent Heating Design Supply Air Humidity Ratio Input Method
  ,                                       !- Zone Humidification Design Supply Air Humidity Ratio {kgWater/kgDryAir}
  0.005,                                  !- Zone Humidification Design Supply Air Humidity Ratio Difference {kgWater/kgDryAir}
  ,                                       !- Zone Humidistat Dehumidification Set Point Schedule Name
  ,                                       !- Zone Humidistat Humidification Set Point Schedule Name
  ,                                       !- Design Zone Air Distribution Effectiveness in Cooling Mode
  ,                                       !- Design Zone Air Distribution Effectiveness in Heating Mode
  ,                                       !- Design Zone Secondary Recirculation Fraction {dimensionless}
  ,                                       !- Design Minimum Zone Ventilation Efficiency {dimensionless}
  Coincident;                             !- Sizing Option

OS:ZoneHVAC:EquipmentList,
  {c9bb1b85-9b9b-408c-9d7b-e1a99e359f77}, !- Handle
  Zone HVAC Equipment List 1,             !- Name
  {02276fce-3546-4be3-89d6-7cb51673d578}, !- Thermal Zone
  ,                                       !- Load Distribution Scheme
  {8cfe2180-d2a9-4659-a174-c2cb3e0dcc62}, !- Zone Equipment 1
  1,                                      !- Zone Equipment Cooling Sequence 1
  1,                                      !- Zone Equipment Heating or No-Load Sequence 1
  {cdd532e8-8ea1-4419-8dfa-af72e2143795}, !- Zone Equipment Sequential Cooling Fraction Schedule Name 1
  {8a9157d0-2070-464b-857f-e024f24b55fb}, !- Zone Equipment Sequential Heating Fraction Schedule Name 1
  {a8a31b5b-ac83-4146-b3f1-47beb29446a2}, !- Zone Equipment 2
  2,                                      !- Zone Equipment Cooling Sequence 2
  2,                                      !- Zone Equipment Heating or No-Load Sequence 2
  {802053a3-e699-49ba-a8c6-5339647fcf80}, !- Zone Equipment Sequential Cooling Fraction Schedule Name 2
  {aed80ff6-6f2f-4c27-995d-47a4d5d2a21c}; !- Zone Equipment Sequential Heating Fraction Schedule Name 2

OS:AdditionalProperties,
  {7b66c5a4-a391-4b99-b1d9-0ab6e2fc6e33}, !- Handle
  {02276fce-3546-4be3-89d6-7cb51673d578}, !- Object Name
  ObjectType,                             !- Feature Name 1
  String,                                 !- Feature Data Type 1
  conditioned space;                      !- Feature Value 1

OS:Space,
  {6b0a0af0-9cf6-4c16-9f47-c3bc36462b65}, !- Handle
  conditioned space 1,                    !- Name
  ,                                       !- Space Type Name
  ,                                       !- Default Construction Set Name
  ,                                       !- Default Schedule Set Name
  ,                                       !- Direction of Relative North {deg}
  ,                                       !- X Origin {m}
  ,                                       !- Y Origin {m}
  ,                                       !- Z Origin {m}
  ,                                       !- Building Story Name
  {02276fce-3546-4be3-89d6-7cb51673d578}, !- Thermal Zone Name
  ,                                       !- Part of Total Floor Area
  ,                                       !- Design Specification Outdoor Air Object Name
  ,                                       !- Building Unit Name
  692.06373070848;                        !- Volume {m3}

OS:Schedule:Ruleset,
  {e331185e-a8a0-44ba-9e0f-c699120a4d51}, !- Handle
  heating setpoint,                       !- Name
  {0506f896-c9d2-42a9-a946-5d9a304ba2ea}, !- Schedule Type Limits Name
  {a03923c8-3af9-42bc-842b-2dfcf13bc680}; !- Default Day Schedule Name

OS:Schedule:Day,
  {a03923c8-3af9-42bc-842b-2dfcf13bc680}, !- Handle
  heating setpoint default day,           !- Name
  {0506f896-c9d2-42a9-a946-5d9a304ba2ea}, !- Schedule Type Limits Name
  ,                                       !- Interpolate to Timestep
  24,                                     !- Hour 1
  0,                                      !- Minute 1
  0;                                      !- Value Until Time 1

OS:Schedule:Rule,
  {e07b7f2b-8d10-40fc-b5e1-58beb189ddbb}, !- Handle
  heating setpoint allday rule,           !- Name
  {e331185e-a8a0-44ba-9e0f-c699120a4d51}, !- Schedule Ruleset Name
  0,                                      !- Rule Order
  {6d516423-7b66-4ff2-8083-ea0d94b798de}, !- Day Schedule Name
  Yes,                                    !- Apply Sunday
  Yes,                                    !- Apply Monday
  Yes,                                    !- Apply Tuesday
  Yes,                                    !- Apply Wednesday
  Yes,                                    !- Apply Thursday
  Yes,                                    !- Apply Friday
  Yes,                                    !- Apply Saturday
  DateRange,                              !- Date Specification Type
  1,                                      !- Start Month
  1,                                      !- Start Day
  12,                                     !- End Month
  31;                                     !- End Day

OS:Schedule:Day,
  {6d516423-7b66-4ff2-8083-ea0d94b798de}, !- Handle
  heating setpoint day,                   !- Name
  {0506f896-c9d2-42a9-a946-5d9a304ba2ea}, !- Schedule Type Limits Name
  ,                                       !- Interpolate to Timestep
  24,                                     !- Hour 1
  0,                                      !- Minute 1
  20;                                     !- Value Until Time 1

OS:Schedule:Ruleset,
  {7d1f21e3-485c-48b5-8636-8fc2711fb5f4}, !- Handle
  cooling setpoint,                       !- Name
  {0506f896-c9d2-42a9-a946-5d9a304ba2ea}, !- Schedule Type Limits Name
  {ba983244-e42f-4c80-b88b-fa7f2b446984}; !- Default Day Schedule Name

OS:Schedule:Day,
  {ba983244-e42f-4c80-b88b-fa7f2b446984}, !- Handle
  cooling setpoint default day,           !- Name
  {0506f896-c9d2-42a9-a946-5d9a304ba2ea}, !- Schedule Type Limits Name
  ,                                       !- Interpolate to Timestep
  24,                                     !- Hour 1
  0,                                      !- Minute 1
  0;                                      !- Value Until Time 1

OS:Schedule:Rule,
  {f51e1365-0059-42b8-9cab-3df4a1a879a3}, !- Handle
  cooling setpoint allday rule,           !- Name
  {7d1f21e3-485c-48b5-8636-8fc2711fb5f4}, !- Schedule Ruleset Name
  0,                                      !- Rule Order
  {6e4060ea-d319-4367-a96c-b4d6edab73dc}, !- Day Schedule Name
  Yes,                                    !- Apply Sunday
  Yes,                                    !- Apply Monday
  Yes,                                    !- Apply Tuesday
  Yes,                                    !- Apply Wednesday
  Yes,                                    !- Apply Thursday
  Yes,                                    !- Apply Friday
  Yes,                                    !- Apply Saturday
  DateRange,                              !- Date Specification Type
  1,                                      !- Start Month
  1,                                      !- Start Day
  12,                                     !- End Month
  31;                                     !- End Day

OS:Schedule:Day,
  {6e4060ea-d319-4367-a96c-b4d6edab73dc}, !- Handle
  cooling setpoint day,                   !- Name
  {0506f896-c9d2-42a9-a946-5d9a304ba2ea}, !- Schedule Type Limits Name
  ,                                       !- Interpolate to Timestep
  24,                                     !- Hour 1
  0,                                      !- Minute 1
  25.5555555555556;                       !- Value Until Time 1

OS:ThermostatSetpoint:DualSetpoint,
  {3cb784a7-9080-4097-ba1f-459fc640d104}, !- Handle
  conditioned space temperature setpoint, !- Name
  {e331185e-a8a0-44ba-9e0f-c699120a4d51}, !- Heating Setpoint Temperature Schedule Name
  {7d1f21e3-485c-48b5-8636-8fc2711fb5f4}, !- Cooling Setpoint Temperature Schedule Name
  0;                                      !- Temperature Difference Between Cutout And Setpoint {deltaC}

OS:ScheduleTypeLimits,
  {0506f896-c9d2-42a9-a946-5d9a304ba2ea}, !- Handle
  Temperature,                            !- Name
  ,                                       !- Lower Limit Value
  ,                                       !- Upper Limit Value
  Continuous,                             !- Numeric Type
  Temperature;                            !- Unit Type

OS:Surface,
  {cc2d9dda-5c84-44a9-a1d8-9439bb45f936}, !- Handle
  Roof1,                                  !- Name
  RoofCeiling,                            !- Surface Type
  {b8914853-ae12-48fd-97ec-cebfe48c8464}, !- Construction Name
  {967869fa-095d-480e-8c0c-a9a7d4de5232}, !- Space Name
  Outdoors,                               !- Outside Boundary Condition
  ,                                       !- Outside Boundary Condition Object
  SunExposed,                             !- Sun Exposure
  WindExposed,                            !- Wind Exposure
  ,                                       !- View Factor to Ground
  ,                                       !- Number of Vertices
  -26.9347048849634, 58.0557891618865, 2.4384, !- X,Y,Z Vertex 1 {m}
  -26.9347048849634, 46.7895631136661, 8.0715130241102, !- X,Y,Z Vertex 2 {m}
  -14.3386812381136, 46.7895631136661, 8.0715130241102, !- X,Y,Z Vertex 3 {m}
  -14.3386812381136, 58.0557891618865, 2.4384; !- X,Y,Z Vertex 4 {m}

OS:AdditionalProperties,
  {7078b6d8-4ca4-4c71-9a79-cff94e2018f4}, !- Handle
  {cc2d9dda-5c84-44a9-a1d8-9439bb45f936}, !- Object Name
  Length,                                 !- Feature Name 1
  Double,                                 !- Feature Data Type 1
  41.325536899113608,                     !- Feature Value 1
  Width,                                  !- Feature Name 2
  Double,                                 !- Feature Data Type 2
  41.325536899113601,                     !- Feature Value 2
  Azimuth,                                !- Feature Name 3
  Integer,                                !- Feature Data Type 3
  0,                                      !- Feature Value 3
  Tilt,                                   !- Feature Name 4
  Double,                                 !- Feature Data Type 4
  0.5,                                    !- Feature Value 4
  SurfaceType,                            !- Feature Name 5
  String,                                 !- Feature Data Type 5
  Roof;                                   !- Feature Value 5

OS:ThermalZone,
  {afa196e7-bcc4-44b2-b06d-37069805bc75}, !- Handle
  attic - vented,                         !- Name
  1,                                      !- Multiplier
  ,                                       !- Ceiling Height {m}
  356.390921899745,                       !- Volume {m3}
  ,                                       !- Floor Area {m2}
  ,                                       !- Zone Inside Convection Algorithm
  ,                                       !- Zone Outside Convection Algorithm
  ,                                       !- Zone Conditioning Equipment List Name
  {29a153f1-a1b9-47df-8ab5-d30f1c295c9e}, !- Zone Air Inlet Port List
  {aad23d59-e198-49ec-a4f0-ffdcb8360096}, !- Zone Air Exhaust Port List
  {135cff60-c2cf-4ebe-81bd-de924b460a5f}, !- Zone Air Node Name
  {05bef6fe-8446-4f63-ab88-829635fd991b}, !- Zone Return Air Port List
  ,                                       !- Primary Daylighting Control Name
  ,                                       !- Fraction of Zone Controlled by Primary Daylighting Control
  ,                                       !- Secondary Daylighting Control Name
  ,                                       !- Fraction of Zone Controlled by Secondary Daylighting Control
  ,                                       !- Illuminance Map Name
  ,                                       !- Group Rendering Name
  ,                                       !- Thermostat Name
  No;                                     !- Use Ideal Air Loads

OS:Node,
  {b03671f9-31a8-4e93-bc12-52084f158fa2}, !- Handle
  Node 2,                                 !- Name
  {135cff60-c2cf-4ebe-81bd-de924b460a5f}, !- Inlet Port
  ;                                       !- Outlet Port

OS:Connection,
  {135cff60-c2cf-4ebe-81bd-de924b460a5f}, !- Handle
  {afa196e7-bcc4-44b2-b06d-37069805bc75}, !- Source Object
  11,                                     !- Outlet Port
  {b03671f9-31a8-4e93-bc12-52084f158fa2}, !- Target Object
  2;                                      !- Inlet Port

OS:PortList,
  {29a153f1-a1b9-47df-8ab5-d30f1c295c9e}, !- Handle
  {afa196e7-bcc4-44b2-b06d-37069805bc75}; !- HVAC Component

OS:PortList,
  {aad23d59-e198-49ec-a4f0-ffdcb8360096}, !- Handle
  {afa196e7-bcc4-44b2-b06d-37069805bc75}; !- HVAC Component

OS:PortList,
  {05bef6fe-8446-4f63-ab88-829635fd991b}, !- Handle
  {afa196e7-bcc4-44b2-b06d-37069805bc75}; !- HVAC Component

OS:Sizing:Zone,
  {d6b71588-deb8-4c5c-a03e-b057b6a94b01}, !- Handle
  {afa196e7-bcc4-44b2-b06d-37069805bc75}, !- Zone or ZoneList Name
  SupplyAirTemperature,                   !- Zone Cooling Design Supply Air Temperature Input Method
  14,                                     !- Zone Cooling Design Supply Air Temperature {C}
  11.11,                                  !- Zone Cooling Design Supply Air Temperature Difference {deltaC}
  SupplyAirTemperature,                   !- Zone Heating Design Supply Air Temperature Input Method
  40,                                     !- Zone Heating Design Supply Air Temperature {C}
  11.11,                                  !- Zone Heating Design Supply Air Temperature Difference {deltaC}
  0.0085,                                 !- Zone Cooling Design Supply Air Humidity Ratio {kg-H2O/kg-air}
  0.008,                                  !- Zone Heating Design Supply Air Humidity Ratio {kg-H2O/kg-air}
  ,                                       !- Zone Heating Sizing Factor
  ,                                       !- Zone Cooling Sizing Factor
  DesignDay,                              !- Cooling Design Air Flow Method
  ,                                       !- Cooling Design Air Flow Rate {m3/s}
  ,                                       !- Cooling Minimum Air Flow per Zone Floor Area {m3/s-m2}
  ,                                       !- Cooling Minimum Air Flow {m3/s}
  ,                                       !- Cooling Minimum Air Flow Fraction
  DesignDay,                              !- Heating Design Air Flow Method
  ,                                       !- Heating Design Air Flow Rate {m3/s}
  ,                                       !- Heating Maximum Air Flow per Zone Floor Area {m3/s-m2}
  ,                                       !- Heating Maximum Air Flow {m3/s}
  ,                                       !- Heating Maximum Air Flow Fraction
  No,                                     !- Account for Dedicated Outdoor Air System
  NeutralSupplyAir,                       !- Dedicated Outdoor Air System Control Strategy
  autosize,                               !- Dedicated Outdoor Air Low Setpoint Temperature for Design {C}
  autosize,                               !- Dedicated Outdoor Air High Setpoint Temperature for Design {C}
  Sensible Load Only No Latent Load,      !- Zone Load Sizing Method
  HumidityRatioDifference,                !- Zone Latent Cooling Design Supply Air Humidity Ratio Input Method
  ,                                       !- Zone Dehumidification Design Supply Air Humidity Ratio {kgWater/kgDryAir}
  0.005,                                  !- Zone Cooling Design Supply Air Humidity Ratio Difference {kgWater/kgDryAir}
  HumidityRatioDifference,                !- Zone Latent Heating Design Supply Air Humidity Ratio Input Method
  ,                                       !- Zone Humidification Design Supply Air Humidity Ratio {kgWater/kgDryAir}
  0.005,                                  !- Zone Humidification Design Supply Air Humidity Ratio Difference {kgWater/kgDryAir}
  ,                                       !- Zone Humidistat Dehumidification Set Point Schedule Name
  ,                                       !- Zone Humidistat Humidification Set Point Schedule Name
  ,                                       !- Design Zone Air Distribution Effectiveness in Cooling Mode
  ,                                       !- Design Zone Air Distribution Effectiveness in Heating Mode
  ,                                       !- Design Zone Secondary Recirculation Fraction {dimensionless}
  ,                                       !- Design Minimum Zone Ventilation Efficiency {dimensionless}
  Coincident;                             !- Sizing Option

OS:ZoneHVAC:EquipmentList,
  {c7340986-c31f-4191-9951-8bd1d6458d0a}, !- Handle
  Zone HVAC Equipment List 2,             !- Name
  {afa196e7-bcc4-44b2-b06d-37069805bc75}; !- Thermal Zone

OS:AdditionalProperties,
  {96c4cb7b-5987-43ea-ad6a-4917fd9b47ef}, !- Handle
  {afa196e7-bcc4-44b2-b06d-37069805bc75}, !- Object Name
  ObjectType,                             !- Feature Name 1
  String,                                 !- Feature Data Type 1
  attic - vented;                         !- Feature Value 1

OS:Space,
  {967869fa-095d-480e-8c0c-a9a7d4de5232}, !- Handle
  attic - vented 1,                       !- Name
  ,                                       !- Space Type Name
  ,                                       !- Default Construction Set Name
  ,                                       !- Default Schedule Set Name
  ,                                       !- Direction of Relative North {deg}
  ,                                       !- X Origin {m}
  ,                                       !- Y Origin {m}
  ,                                       !- Z Origin {m}
  ,                                       !- Building Story Name
  {afa196e7-bcc4-44b2-b06d-37069805bc75}, !- Thermal Zone Name
  ,                                       !- Part of Total Floor Area
  ,                                       !- Design Specification Outdoor Air Object Name
  ,                                       !- Building Unit Name
  356.390921899745;                       !- Volume {m3}

OS:Material,