
OS:Version,
  {cca62685-9258-467d-ba25-8fe503fd9669}, !- Handle
  3.9.0;                                  !- Version Identifier

OS:SimulationControl,
  {824dfcf8-b46e-4d68-9016-b9f101ee6b97}, !- Handle
  ,                                       !- Do Zone Sizing Calculation
  ,                                       !- Do System Sizing Calculation
  ,                                       !- Do Plant Sizing Calculation
  No;                                     !- Run Simulation for Sizing Periods

OS:Timestep,
  {9c4eadb3-334e-4e4f-998d-c7afcd1947c2}, !- Handle
  1;                                      !- Number of Timesteps per Hour

OS:ShadowCalculation,
  {64b87ab3-0581-481c-a227-edb57855df07}, !- Handle
  PolygonClipping,                        !- Shading Calculation Method
  ,                                       !- Shading Calculation Update Frequency Method
  20,                                     !- Shading Calculation Update Frequency
  200,                                    !- Maximum Figures in Shadow Overlap Calculations
  ,                                       !- Polygon Clipping Algorithm
  512,                                    !- Pixel Counting Resolution
  ,                                       !- Sky Diffuse Modeling Algorithm
  No,                                     !- Output External Shading Calculation Results
  No,                                     !- Disable Self-Shading Within Shading Zone Groups
  No;                                     !- Disable Self-Shading From Shading Zone Groups to Other Zones

OS:SurfaceConvectionAlgorithm:Outside,
  {4c662a30-bc1f-4b67-9686-21a7f924f8a7}, !- Handle
  DOE-2;                                  !- Algorithm

OS:SurfaceConvectionAlgorithm:Inside,
  {03669faf-6feb-4ffb-b016-28d7f4bc96e0}, !- Handle
  TARP;                                   !- Algorithm

OS:ZoneCapacitanceMultiplier:ResearchSpecial,
  {8c062599-9fdd-4ab5-afb3-ce752efd7d00}, !- Handle
  7,                                      !- Temperature Capacity Multiplier
  15,                                     !- Humidity Capacity Multiplier
  ;                                       !- Carbon Dioxide Capacity Multiplier

OS:ConvergenceLimits,
  {07057c0c-9b67-423d-9cfe-abd5ac7450b0}, !- Handle
  0;                                      !- Minimum System Timestep {minutes}

OS:RunPeriod,
  {1df3961b-f893-4c69-86ff-f7a0a279a0e9}, !- Handle
  Run Period 1,                           !- Name
  1,                                      !- Begin Month
  1,                                      !- Begin Day of Month
  12,                                     !- End Month
  31,                                     !- End Day of Month
  ,                                       !- Use Weather File Holidays and Special Days
  ,                                       !- Use Weather File Daylight Saving Period
  ,                                       !- Apply Weekend Holiday Rule
  ,                                       !- Use Weather File Rain Indicators
  ,                                       !- Use Weather File Snow Indicators
  ;                                       !- Number of Times Runperiod to be Repeated

OS:PerformancePrecisionTradeoffs,
  {9a9a8133-a41c-4acd-8d06-63b4454535be}, !- Handle
  ,                                       !- Use Coil Direct Solutions
  CarrollMRT;                             !- Zone Radiant Exchange Algorithm

OS:WeatherFile,
  {5dee5d56-22e8-456d-b03f-214e9989b712}, !- Handle
  Buffalo Niagara Intl Ap,                !- City
  NY,                                     !- State Province Region
  USA,                                    !- Country
  TMY3,                                   !- Data Source
  725280,                                 !- WMO Number
  42.93,                                  !- Latitude {deg}
  -78.73,                                 !- Longitude {deg}
  -5,                                     !- Time Zone {hr}
  215,                                    !- Elevation {m}
  /Users/nmoore/github/urbanopt-example-geojson-project/example_project/weather/USA_NY_Buffalo-Greater.Buffalo.Intl.AP.725280_TMY3.epw, !- Url
  6B50E0FF,                               !- Checksum
  ,                                       !- Start Date Actual Year
  Sunday;                                 !- Start Day of Week

OS:YearDescription,
  {f803010c-7fb1-4778-a55b-40971481994d}, !- Handle
  2007,                                   !- Calendar Year
  ,                                       !- Day of Week for Start Day
  ;                                       !- Is Leap Year

OS:Site,
  {20048332-5093-4f8e-b277-35cc8a07c5bc}, !- Handle
  Buffalo Niagara Intl Ap_NY,             !- Name
  42.93,                                  !- Latitude {deg}
  -78.73,                                 !- Longitude {deg}
  -5,                                     !- Time Zone {hr}
  215,                                    !- Elevation {m}
  Suburbs,                                !- Terrain
  Yes;                                    !- Keep Site Location Information

OS:RunPeriodControl:DaylightSavingTime,
  {30de6bd2-ecae-4f1f-9df0-794f8656e4bd}, !- Handle
  Mar 12,                                 !- Start Date
  Nov 5;                                  !- End Date

OS:Site:GroundTemperature:Shallow,
  {b7f41652-75d7-485d-9548-1feb8c2ca34f}, !- Handle
  4.30207395723828,                       !- January Surface Ground Temperature {C}
  2.29327249652502,                       !- February Surface Ground Temperature {C}
  2.13240047156047,                       !- March Surface Ground Temperature {C}
  3.08567940719286,                       !- April Surface Ground Temperature {C}
  6.91256312497526,                       !- May Surface Ground Temperature {C}
  10.7216195949507,                       !- June Surface Ground Temperature {C}
  14.0238679822574,                       !- July Surface Ground Temperature {C}
  16.1157611184724,                       !- August Surface Ground Temperature {C}
  16.2934789303462,                       !- September Surface Ground Temperature {C}
  14.5920754632847,                       !- October Surface Ground Temperature {C}
  11.374036348653,                        !- November Surface Ground Temperature {C}
  7.68182621661674;                       !- December Surface Ground Temperature {C}

OS:ThermalZone,
  {5085c1c9-a8fd-49dc-9c01-038be8a4fd1f}, !- Handle
  conditioned space,                      !- Name
  1,                                      !- Multiplier
  ,                                       !- Ceiling Height {m}
  692.06373070848,                        !- Volume {m3}
  ,                                       !- Floor Area {m2}
  ,                                       !- Zone Inside Convection Algorithm
  ,                                       !- Zone Outside Convection Algorithm
  ,                                       !- Zone Conditioning Equipment List Name
  {4a1ecd0e-8362-4f2f-a0ab-090da3cba4cb}, !- Zone Air Inlet Port List
  {9aa7a247-36c7-41b9-b3ac-b88806080b83}, !- Zone Air Exhaust Port List
  {fb0d1982-a6a9-49ee-a64f-19bd10e56f65}, !- Zone Air Node Name
  {6581d243-4743-4641-b958-a80fca5e1c3b}, !- Zone Return Air Port List
  ,                                       !- Primary Daylighting Control Name
  ,                                       !- Fraction of Zone Controlled by Primary Daylighting Control
  ,                                       !- Secondary Daylighting Control Name
  ,                                       !- Fraction of Zone Controlled by Secondary Daylighting Control
  ,                                       !- Illuminance Map Name
  ,                                       !- Group Rendering Name
  {2c75c656-eeb0-4062-ae8b-62a797a07556}, !- Thermostat Name
  No;                                     !- Use Ideal Air Loads

OS:Node,
  {d6fd9558-be03-471e-a7da-2facbd4b88f0}, !- Handle
  Node 1,                                 !- Name
  {fb0d1982-a6a9-49ee-a64f-19bd10e56f65}, !- Inlet Port
  ;                                       !- Outlet Port

OS:Connection,
  {fb0d1982-a6a9-49ee-a64f-19bd10e56f65}, !- Handle
  {5085c1c9-a8fd-49dc-9c01-038be8a4fd1f}, !- Source Object
  11,                                     !- Outlet Port
  {d6fd9558-be03-471e-a7da-2facbd4b88f0}, !- Target Object
  2;                                      !- Inlet Port

OS:PortList,
  {4a1ecd0e-8362-4f2f-a0ab-090da3cba4cb}, !- Handle
  {5085c1c9-a8fd-49dc-9c01-038be8a4fd1f}, !- HVAC Component
  {a609fe84-cc7b-4f54-af03-f58048502ac1}, !- Port 1
  {38b5bbe3-f895-4457-8694-3000214d1648}; !- Port 2

OS:PortList,
  {9aa7a247-36c7-41b9-b3ac-b88806080b83}, !- Handle
  {5085c1c9-a8fd-49dc-9c01-038be8a4fd1f}; !- HVAC Component

OS:PortList,
  {6581d243-4743-4641-b958-a80fca5e1c3b}, !- Handle
  {5085c1c9-a8fd-49dc-9c01-038be8a4fd1f}, !- HVAC Component
  {64f970a6-bdd1-4dc9-afd4-310898108a31}, !- Port 1
  {ba6a59da-de01-4da1-b0aa-9881aea4ee26}; !- Port 2

OS:Sizing:Zone,
  {1971e3c9-bb3c-46bf-8c02-f70eaa568657}, !- Handle
  {5085c1c9-a8fd-49dc-9c01-038be8a4fd1f}, !- Zone or ZoneList Name
  SupplyAirTemperature,                   !- Zone Cooling Design Supply Air Temperature Input Method
  14,                                     !- Zone Cooling Design Supply Air Temperature {C}
  11.11,                                  !- Zone Cooling Design Supply Air Temperature Difference {deltaC}
  SupplyAirTemperature,                   !- Zone Heating Design Supply Air Temperature Input Method
  40,                                     !- Zone Heating Design Supply Air Temperature {C}
  11.11,                                  !- Zone Heating Design Supply Air Temperature Difference {deltaC}
  0.0085,                                 !- Zone Cooling Design Supply Air Humidity Ratio {kg-H2O/kg-air}
  0.008,                                  !- Zone Heating Design Supply Air Humidity Ratio {kg-H2O/kg-air}
  ,                                       !- Zone Heating Sizing Factor
  ,                                       !- Zone Cooling Sizing Factor
  DesignDay,                              !- Cooling Design Air Flow Method
  ,                                       !- Cooling Design Air Flow Rate {m3/s}
  ,                                       !- Cooling Minimum Air Flow per Zone Floor Area {m3/s-m2}
  ,                                       !- Cooling Minimum Air Flow {m3/s}
  ,                                       !- Cooling Minimum Air Flow Fraction
  DesignDay,                              !- Heating Design Air Flow Method
  ,                                       !- Heating Design Air Flow Rate {m3/s}
  ,                                       !- Heating Maximum Air Flow per Zone Floor Area {m3/s-m2}
  ,                                       !- Heating Maximum Air Flow {m3/s}
  ,                                       !- Heating Maximum Air Flow Fraction
  No,                                     !- Account for Dedicated Outdoor Air System
  NeutralSupplyAir,                       !- Dedicated Outdoor Air System Control Strategy
  autosize,                               !- Dedicated Outdoor Air Low Setpoint Temperature for Design {C}
  autosize,                               !- Dedicated Outdoor Air High Setpoint Temperature for Design {C}
  Sensible Load Only No Latent Load,      !- Zone Load Sizing Method
  HumidityRatioDifference,                !- Zone Latent Cooling Design Supply Air Humidity Ratio Input Method
  ,                                       !- Zone Dehumidification Design Supply Air Humidity Ratio {kgWater/kgDryAir}
  0.005,                                  !- Zone Cooling Design Supply Air Humidity Ratio Difference {kgWater/kgDryAir}
  HumidityRatioDifference,                !- Zone Latent Heating Design Supply Air Humidity Ratio Input Method
  ,                                       !- Zone Humidification Design Supply Air Humidity Ratio {kgWater/kgDryAir}
  0.005,                                  !- Zone Humidification Design Supply Air Humidity Ratio Difference {kgWater/kgDryAir}
  ,                                       !- Zone Humidistat Dehumidification Set Point Schedule Name
  ,                                       !- Zone Humidistat Humidification Set Point Schedule Name
  ,                                       !- Design Zone Air Distribution Effectiveness in Cooling Mode
  ,                                       !- Design Zone Air Distribution Effectiveness in Heating Mode
  ,                                       !- Design Zone Secondary Recirculation Fraction {dimensionless}
  ,                                       !- Design Minimum Zone Ventilation Efficiency {dimensionless}
  Coincident;                             !- Sizing Option

OS:ZoneHVAC:EquipmentList,
  {f637353c-ce25-43d6-acf0-6bec8f3c3fc5}, !- Handle
  Zone HVAC Equipment List 1,             !- Name
  {5085c1c9-a8fd-49dc-9c01-038be8a4fd1f}, !- Thermal Zone
  ,                                       !- Load Distribution Scheme
  {00999186-6998-4020-86b4-509db7e75948}, !- Zone Equipment 1
  1,                                      !- Zone Equipment Cooling Sequence 1
  1,                                      !- Zone Equipment Heating or No-Load Sequence 1
  {70a34784-01e0-4dcc-b9fb-5eec88f58749}, !- Zone Equipment Sequential Cooling Fraction Schedule Name 1
  {cf6579e9-1c46-4c1d-810d-38e21b3869a4}, !- Zone Equipment Sequential Heating Fraction Schedule Name 1
  {df6dcb2f-8537-47d0-b4da-0463b352f24f}, !- Zone Equipment 2
  2,                                      !- Zone Equipment Cooling Sequence 2
  2,                                      !- Zone Equipment Heating or No-Load Sequence 2
  {46cfd2c6-e80a-49cf-82d3-68d74adb57ad}, !- Zone Equipment Sequential Cooling Fraction Schedule Name 2
  {c1fb3309-642c-4b9f-8fa2-f47f67b601d5}; !- Zone Equipment Sequential Heating Fraction Schedule Name 2

OS:AdditionalProperties,
  {c505db15-bb72-4193-9fc9-9ee1b9de423f}, !- Handle
  {5085c1c9-a8fd-49dc-9c01-038be8a4fd1f}, !- Object Name
  ObjectType,                             !- Feature Name 1
  String,                                 !- Feature Data Type 1
  conditioned space;                      !- Feature Value 1

OS:Space,
  {543a6d01-7822-4b6d-9e13-3135d423c2c2}, !- Handle
  conditioned space 1,                    !- Name
  ,                                       !- Space Type Name
  ,                                       !- Default Construction Set Name
  ,                                       !- Default Schedule Set Name
  ,                                       !- Direction of Relative North {deg}
  ,                                       !- X Origin {m}
  ,                                       !- Y Origin {m}
  ,                                       !- Z Origin {m}
  ,                                       !- Building Story Name
  {5085c1c9-a8fd-49dc-9c01-038be8a4fd1f}, !- Thermal Zone Name
  ,                                       !- Part of Total Floor Area
  ,                                       !- Design Specification Outdoor Air Object Name
  ,                                       !- Building Unit Name
  692.06373070848;                        !- Volume {m3}

OS:Schedule:Ruleset,
  {411ba4ae-9b87-4af0-a6be-159b70d4f855}, !- Handle
  heating setpoint,                       !- Name
  {a5177256-a054-419d-8ca2-d97e39f4e1d6}, !- Schedule Type Limits Name
  {bf05d814-a772-43ac-bde0-3e1ce1d3986f}; !- Default Day Schedule Name

OS:Schedule:Day,
  {bf05d814-a772-43ac-bde0-3e1ce1d3986f}, !- Handle
  heating setpoint default day,           !- Name
  {a5177256-a054-419d-8ca2-d97e39f4e1d6}, !- Schedule Type Limits Name
  ,                                       !- Interpolate to Timestep
  24,                                     !- Hour 1
  0,                                      !- Minute 1
  0;                                      !- Value Until Time 1

OS:Schedule:Rule,
  {fd4bc89b-d601-43cf-9b40-c29ca33cbe78}, !- Handle
  heating setpoint allday rule,           !- Name
  {411ba4ae-9b87-4af0-a6be-159b70d4f855}, !- Schedule Ruleset Name
  0,                                      !- Rule Order
  {94e66ec3-a1ae-40f4-a065-895c181029cc}, !- Day Schedule Name
  Yes,                                    !- Apply Sunday
  Yes,                                    !- Apply Monday
  Yes,                                    !- Apply Tuesday
  Yes,                                    !- Apply Wednesday
  Yes,                                    !- Apply Thursday
  Yes,                                    !- Apply Friday
  Yes,                                    !- Apply Saturday
  DateRange,                              !- Date Specification Type
  1,                                      !- Start Month
  1,                                      !- Start Day
  12,                                     !- End Month
  31;                                     !- End Day

OS:Schedule:Day,
  {94e66ec3-a1ae-40f4-a065-895c181029cc}, !- Handle
  heating setpoint day,                   !- Name
  {a5177256-a054-419d-8ca2-d97e39f4e1d6}, !- Schedule Type Limits Name
  ,                                       !- Interpolate to Timestep
  24,                                     !- Hour 1
  0,                                      !- Minute 1
  20;                                     !- Value Until Time 1

OS:Schedule:Ruleset,
  {e8d938b8-46f6-4622-8d14-3ba28ee5797c}, !- Handle
  cooling setpoint,                       !- Name
  {a5177256-a054-419d-8ca2-d97e39f4e1d6}, !- Schedule Type Limits Name
  {a8873951-00d2-4a1c-bd6b-1f9ffeb93aab}; !- Default Day Schedule Name

OS:Schedule:Day,
  {a8873951-00d2-4a1c-bd6b-1f9ffeb93aab}, !- Handle
  cooling setpoint default day,           !- Name
  {a5177256-a054-419d-8ca2-d97e39f4e1d6}, !- Schedule Type Limits Name
  ,                                       !- Interpolate to Timestep
  24,                                     !- Hour 1
  0,                                      !- Minute 1
  0;                                      !- Value Until Time 1

OS:Schedule:Rule,
  {105af65c-ad6a-43fd-9d51-744554b3be83}, !- Handle
  cooling setpoint allday rule,           !- Name
  {e8d938b8-46f6-4622-8d14-3ba28ee5797c}, !- Schedule Ruleset Name
  0,                                      !- Rule Order
  {61548c1e-5716-4ecf-aef4-097f5f741b96}, !- Day Schedule Name
  Yes,                                    !- Apply Sunday
  Yes,                                    !- Apply Monday
  Yes,                                    !- Apply Tuesday
  Yes,                                    !- Apply Wednesday
  Yes,                                    !- Apply Thursday
  Yes,                                    !- Apply Friday
  Yes,                                    !- Apply Saturday
  DateRange,                              !- Date Specification Type
  1,                                      !- Start Month
  1,                                      !- Start Day
  12,                                     !- End Month
  31;                                     !- End Day

OS:Schedule:Day,
  {61548c1e-5716-4ecf-aef4-097f5f741b96}, !- Handle
  cooling setpoint day,                   !- Name
  {a5177256-a054-419d-8ca2-d97e39f4e1d6}, !- Schedule Type Limits Name
  ,                                       !- Interpolate to Timestep
  24,                                     !- Hour 1
  0,                                      !- Minute 1
  25.5555555555556;                       !- Value Until Time 1

OS:ThermostatSetpoint:DualSetpoint,
  {2c75c656-eeb0-4062-ae8b-62a797a07556}, !- Handle
  conditioned space temperature setpoint, !- Name
  {411ba4ae-9b87-4af0-a6be-159b70d4f855}, !- Heating Setpoint Temperature Schedule Name
  {e8d938b8-46f6-4622-8d14-3ba28ee5797c}, !- Cooling Setpoint Temperature Schedule Name
  0;                                      !- Temperature Difference Between Cutout And Setpoint {deltaC}

OS:ScheduleTypeLimits,
  {a5177256-a054-419d-8ca2-d97e39f4e1d6}, !- Handle
  Temperature,                            !- Name
  ,                                       !- Lower Limit Value
  ,                                       !- Upper Limit Value
  Continuous,                             !- Numeric Type
  Temperature;                            !- Unit Type

OS:Surface,
  {d3dd68c3-e8eb-4e5a-8bdf-214be8d3835e}, !- Handle
  Roof1,                                  !- Name
  RoofCeiling,                            !- Surface Type
  {dd2d7498-bf9d-45a6-9cd4-da2e47a15a70}, !- Construction Name
  {edcc92f1-f48e-454e-83b2-fb0bedec7db0}, !- Space Name
  Outdoors,                               !- Outside Boundary Condition
  ,                                       !- Outside Boundary Condition Object
  SunExposed,                             !- Sun Exposure
  WindExposed,                            !- Wind Exposure
  ,                                       !- View Factor to Ground
  ,                                       !- Number of Vertices
  -26.9347048849634, 58.0557891618865, 2.4384, !- X,Y,Z Vertex 1 {m}
  -26.9347048849634, 46.7895631136661, 8.0715130241102, !- X,Y,Z Vertex 2 {m}
  -14.3386812381136, 46.7895631136661, 8.0715130241102, !- X,Y,Z Vertex 3 {m}
  -14.3386812381136, 58.0557891618865, 2.4384; !- X,Y,Z Vertex 4 {m}

OS:AdditionalProperties,
  {78a36170-33fb-483c-8187-3fe708560e26}, !- Handle
  {d3dd68c3-e8eb-4e5a-8bdf-214be8d3835e}, !- Object Name
  Length,                                 !- Feature Name 1
  Double,                                 !- Feature Data Type 1
  41.325536899113608,                     !- Feature Value 1
  Width,                                  !- Feature Name 2
  Double,                                 !- Feature Data Type 2
  41.325536899113601,                     !- Feature Value 2
  Azimuth,                                !- Feature Name 3
  Integer,                                !- Feature Data Type 3
  0,                                      !- Feature Value 3
  Tilt,                                   !- Feature Name 4
  Double,                                 !- Feature Data Type 4
  0.5,                                    !- Feature Value 4
  SurfaceType,                            !- Feature Name 5
  String,                                 !- Feature Data Type 5
  Roof;                                   !- Feature Value 5

OS:ThermalZone,
  {8b206b18-8d73-480e-aeec-2a21a69843b2}, !- Handle
  attic - vented,                         !- Name
  1,                                      !- Multiplier
  ,                                       !- Ceiling Height {m}
  356.389957095237,                       !- Volume {m3}
  ,                                       !- Floor Area {m2}
  ,                                       !- Zone Inside Convection Algorithm
  ,                                       !- Zone Outside Convection Algorithm
  ,                                       !- Zone Conditioning Equipment List Name
  {7b194f49-1c81-44d5-9a81-25b690e7403e}, !- Zone Air Inlet Port List
  {46d140c7-9710-4588-9cf4-1996c052f420}, !- Zone Air Exhaust Port List
  {e3f1e668-357a-4e0d-bb62-9e50459c649b}, !- Zone Air Node Name
  {508b1319-f1ae-4c27-bcca-09c73b8cc2cb}, !- Zone Return Air Port List
  ,                                       !- Primary Daylighting Control Name
  ,                                       !- Fraction of Zone Controlled by Primary Daylighting Control
  ,                                       !- Secondary Daylighting Control Name
  ,                                       !- Fraction of Zone Controlled by Secondary Daylighting Control
  ,                                       !- Illuminance Map Name
  ,                                       !- Group Rendering Name
  ,                                       !- Thermostat Name
  No;                                     !- Use Ideal Air Loads

OS:Node,
  {bd722ff7-0343-4067-9ea3-7b7d0d194a71}, !- Handle
  Node 2,                                 !- Name
  {e3f1e668-357a-4e0d-bb62-9e50459c649b}, !- Inlet Port
  ;                                       !- Outlet Port

OS:Connection,
  {e3f1e668-357a-4e0d-bb62-9e50459c649b}, !- Handle
  {8b206b18-8d73-480e-aeec-2a21a69843b2}, !- Source Object
  11,                                     !- Outlet Port
  {bd722ff7-0343-4067-9ea3-7b7d0d194a71}, !- Target Object
  2;                                      !- Inlet Port

OS:PortList,
  {7b194f49-1c81-44d5-9a81-25b690e7403e}, !- Handle
  {8b206b18-8d73-480e-aeec-2a21a69843b2}; !- HVAC Component

OS:PortList,
  {46d140c7-9710-4588-9cf4-1996c052f420}, !- Handle
  {8b206b18-8d73-480e-aeec-2a21a69843b2}; !- HVAC Component

OS:PortList,
  {508b1319-f1ae-4c27-bcca-09c73b8cc2cb}, !- Handle
  {8b206b18-8d73-480e-aeec-2a21a69843b2}; !- HVAC Component

OS:Sizing:Zone,
  {294d5174-8c9d-4d54-82a8-0215350e3661}, !- Handle
  {8b206b18-8d73-480e-aeec-2a21a69843b2}, !- Zone or ZoneList Name
  SupplyAirTemperature,                   !- Zone Cooling Design Supply Air Temperature Input Method
  14,                                     !- Zone Cooling Design Supply Air Temperature {C}
  11.11,                                  !- Zone Cooling Design Supply Air Temperature Difference {deltaC}
  SupplyAirTemperature,                   !- Zone Heating Design Supply Air Temperature Input Method
  40,                                     !- Zone Heating Design Supply Air Temperature {C}
  11.11,                                  !- Zone Heating Design Supply Air Temperature Difference {deltaC}
  0.0085,                                 !- Zone Cooling Design Supply Air Humidity Ratio {kg-H2O/kg-air}
  0.008,                                  !- Zone Heating Design Supply Air Humidity Ratio {kg-H2O/kg-air}
  ,                                       !- Zone Heating Sizing Factor
  ,                                       !- Zone Cooling Sizing Factor
  DesignDay,                              !- Cooling Design Air Flow Method
  ,                                       !- Cooling Design Air Flow Rate {m3/s}
  ,                                       !- Cooling Minimum Air Flow per Zone Floor Area {m3/s-m2}
  ,                                       !- Cooling Minimum Air Flow {m3/s}
  ,                                       !- Cooling Minimum Air Flow Fraction
  DesignDay,                              !- Heating Design Air Flow Method
  ,                                       !- Heating Design Air Flow Rate {m3/s}
  ,                                       !- Heating Maximum Air Flow per Zone Floor Area {m3/s-m2}
  ,                                       !- Heating Maximum Air Flow {m3/s}
  ,                                       !- Heating Maximum Air Flow Fraction
  No,                                     !- Account for Dedicated Outdoor Air System
  NeutralSupplyAir,                       !- Dedicated Outdoor Air System Control Strategy
  autosize,                               !- Dedicated Outdoor Air Low Setpoint Temperature for Design {C}
  autosize,                               !- Dedicated Outdoor Air High Setpoint Temperature for Design {C}
  Sensible Load Only No Latent Load,      !- Zone Load Sizing Method
  HumidityRatioDifference,                !- Zone Latent Cooling Design Supply Air Humidity Ratio Input Method
  ,                                       !- Zone Dehumidification Design Supply Air Humidity Ratio {kgWater/kgDryAir}
  0.005,                                  !- Zone Cooling Design Supply Air Humidity Ratio Difference {kgWater/kgDryAir}
  HumidityRatioDifference,                !- Zone Latent Heating Design Supply Air Humidity Ratio Input Method
  ,                                       !- Zone Humidification Design Supply Air Humidity Ratio {kgWater/kgDryAir}
  0.005,                                  !- Zone Humidification Design Supply Air Humidity Ratio Difference {kgWater/kgDryAir}
  ,                                       !- Zone Humidistat Dehumidification Set Point Schedule Name
  ,                                       !- Zone Humidistat Humidification Set Point Schedule Name
  ,                                       !- Design Zone Air Distribution Effectiveness in Cooling Mode
  ,                                       !- Design Zone Air Distribution Effectiveness in Heating Mode
  ,                                       !- Design Zone Secondary Recirculation Fraction {dimensionless}
  ,                                       !- Design Minimum Zone Ventilation Efficiency {dimensionless}
  Coincident;                             !- Sizing Option

OS:ZoneHVAC:EquipmentList,
  {d9a8a01a-c447-4793-a33c-27495eda995e}, !- Handle
  Zone HVAC Equipment List 2,             !- Name
  {8b206b18-8d73-480e-aeec-2a21a69843b2}; !- Thermal Zone

OS:AdditionalProperties,
  {4eab7d94-d761-4616-bf25-004c0c3a5974}, !- Handle
  {8b206b18-8d73-480e-aeec-2a21a69843b2}, !- Object Name
  ObjectType,                             !- Feature Name 1
  String,                                 !- Feature Data Type 1
  attic - vented;                         !- Feature Value 1

OS:Space,
  {edcc92f1-f48e-454e-83b2-fb0bedec7db0}, !- Handle
  attic - vented 1,                       !- Name
  ,                                       !- Space Type Name
  ,                                       !- Default Construction Set Name
  ,                                       !- Default Schedule Set Name
  ,                                       !- Direction of Relative North {deg}
  ,                                       !- X Origin {m}
  ,                                       !- Y Origin {m}
  ,                                       !- Z Origin {m}
  ,                                       !- Building Story Name
  {8b206b18-8d73-480e-aeec-2a21a69843b2}, !- Thermal Zone Name
  ,                                       !- Part of Total Floor Area
  ,                                       !- Design Specification Outdoor Air Object Name
  ,                                       !- Building Unit Name
  356.389957095237;                       !- Volume {m3}

OS:Material,