
OS:Version,
  {e5e8a9d1-f0fb-4e24-9862-f6152927c1e5}, !- Handle
  3.9.0;                                  !- Version Identifier

OS:SimulationControl,
  {6c117aed-6f30-4744-bb28-25bbd1e21625}, !- Handle
  ,                                       !- Do Zone Sizing Calculation
  ,                                       !- Do System Sizing Calculation
  ,                                       !- Do Plant Sizing Calculation
  No;                                     !- Run Simulation for Sizing Periods

OS:Timestep,
  {0572902f-3f1b-4692-bf0e-65e2ff5c9f08}, !- Handle
  1;                                      !- Number of Timesteps per Hour

OS:ShadowCalculation,
  {f218a8f3-a8e1-4bf1-9d73-be780eaa866d}, !- Handle
  PolygonClipping,                        !- Shading Calculation Method
  ,                                       !- Shading Calculation Update Frequency Method
  20,                                     !- Shading Calculation Update Frequency
  200,                                    !- Maximum Figures in Shadow Overlap Calculations
  ,                                       !- Polygon Clipping Algorithm
  512,                                    !- Pixel Counting Resolution
  ,                                       !- Sky Diffuse Modeling Algorithm
  No,                                     !- Output External Shading Calculation Results
  No,                                     !- Disable Self-Shading Within Shading Zone Groups
  No;                                     !- Disable Self-Shading From Shading Zone Groups to Other Zones

OS:SurfaceConvectionAlgorithm:Outside,
  {6260ce48-202d-4bbb-aeb1-cd6aaae46a02}, !- Handle
  DOE-2;                                  !- Algorithm

OS:SurfaceConvectionAlgorithm:Inside,
  {ad5c2cd6-f317-494e-a870-776c58bc88ea}, !- Handle
  TARP;                                   !- Algorithm

OS:ZoneCapacitanceMultiplier:ResearchSpecial,
  {46e971ff-5a90-40b1-8232-ecb05d8bb5bf}, !- Handle
  7,                                      !- Temperature Capacity Multiplier
  15,                                     !- Humidity Capacity Multiplier
  ;                                       !- Carbon Dioxide Capacity Multiplier

OS:ConvergenceLimits,
  {03e0c052-e083-4825-81a3-0f163c93af27}, !- Handle
  0;                                      !- Minimum System Timestep {minutes}

OS:RunPeriod,
  {0df3c507-6a5b-4ee1-93a1-a62e1d227cbd}, !- Handle
  Run Period 1,                           !- Name
  1,                                      !- Begin Month
  1,                                      !- Begin Day of Month
  12,                                     !- End Month
  31,                                     !- End Day of Month
  ,                                       !- Use Weather File Holidays and Special Days
  ,                                       !- Use Weather File Daylight Saving Period
  ,                                       !- Apply Weekend Holiday Rule
  ,                                       !- Use Weather File Rain Indicators
  ,                                       !- Use Weather File Snow Indicators
  ;                                       !- Number of Times Runperiod to be Repeated

OS:PerformancePrecisionTradeoffs,
  {b7f48230-af83-4581-b5a5-e6b2e5f58339}, !- Handle
  ,                                       !- Use Coil Direct Solutions
  CarrollMRT;                             !- Zone Radiant Exchange Algorithm

OS:WeatherFile,
  {a2fdd49f-e77f-483e-807a-0df996b8bb57}, !- Handle
  Buffalo Niagara Intl Ap,                !- City
  NY,                                     !- State Province Region
  USA,                                    !- Country
  TMY3,                                   !- Data Source
  725280,                                 !- WMO Number
  42.93,                                  !- Latitude {deg}
  -78.73,                                 !- Longitude {deg}
  -5,                                     !- Time Zone {hr}
  215,                                    !- Elevation {m}
  /Users/nmoore/github/urbanopt-example-geojson-project/example_project/weather/USA_NY_Buffalo-Greater.Buffalo.Intl.AP.725280_TMY3.epw, !- Url
  6B50E0FF,                               !- Checksum
  ,                                       !- Start Date Actual Year
  Sunday;                                 !- Start Day of Week

OS:YearDescription,
  {d7615916-859a-4b73-8871-09bf89459267}, !- Handle
  2007,                                   !- Calendar Year
  ,                                       !- Day of Week for Start Day
  ;                                       !- Is Leap Year

OS:Site,
  {7a02c572-5fb6-4609-a479-ad87a650b513}, !- Handle
  Buffalo Niagara Intl Ap_NY,             !- Name
  42.93,                                  !- Latitude {deg}
  -78.73,                                 !- Longitude {deg}
  -5,                                     !- Time Zone {hr}
  215,                                    !- Elevation {m}
  Suburbs,                                !- Terrain
  Yes;                                    !- Keep Site Location Information

OS:RunPeriodControl:DaylightSavingTime,
  {6479e604-3189-46a9-9fe7-4538ac9f98ca}, !- Handle
  Mar 12,                                 !- Start Date
  Nov 5;                                  !- End Date

OS:Site:GroundTemperature:Shallow,
  {b3fd1db1-371d-42b8-a769-69e3d03558ee}, !- Handle
  4.30207395723828,                       !- January Surface Ground Temperature {C}
  2.29327249652502,                       !- February Surface Ground Temperature {C}
  2.13240047156047,                       !- March Surface Ground Temperature {C}
  3.08567940719286,                       !- April Surface Ground Temperature {C}
  6.91256312497526,                       !- May Surface Ground Temperature {C}
  10.7216195949507,                       !- June Surface Ground Temperature {C}
  14.0238679822574,                       !- July Surface Ground Temperature {C}
  16.1157611184724,                       !- August Surface Ground Temperature {C}
  16.2934789303462,                       !- September Surface Ground Temperature {C}
  14.5920754632847,                       !- October Surface Ground Temperature {C}
  11.374036348653,                        !- November Surface Ground Temperature {C}
  7.68182621661674;                       !- December Surface Ground Temperature {C}

OS:ThermalZone,
  {8461563e-83ee-4965-a37c-df4d0bce678f}, !- Handle
  conditioned space,                      !- Name
  1,                                      !- Multiplier
  ,                                       !- Ceiling Height {m}
  692.06373070848,                        !- Volume {m3}
  ,                                       !- Floor Area {m2}
  ,                                       !- Zone Inside Convection Algorithm
  ,                                       !- Zone Outside Convection Algorithm
  ,                                       !- Zone Conditioning Equipment List Name
  {89bd0d2a-59c0-4233-8ffa-eec50c03474b}, !- Zone Air Inlet Port List
  {967a38c5-4840-41ce-9943-8b57ace1d27c}, !- Zone Air Exhaust Port List
  {e6d6cbd1-6d12-4fdb-9b2c-9aeb9ef0bb43}, !- Zone Air Node Name
  {f871c569-9d1f-408a-b824-66b39fb148b2}, !- Zone Return Air Port List
  ,                                       !- Primary Daylighting Control Name
  ,                                       !- Fraction of Zone Controlled by Primary Daylighting Control
  ,                                       !- Secondary Daylighting Control Name
  ,                                       !- Fraction of Zone Controlled by Secondary Daylighting Control
  ,                                       !- Illuminance Map Name
  ,                                       !- Group Rendering Name
  {108cee21-3d09-4274-9866-a78b0aa6e410}, !- Thermostat Name
  No;                                     !- Use Ideal Air Loads

OS:Node,
  {eeb88658-2771-4391-ab34-f6008473ec3c}, !- Handle
  Node 1,                                 !- Name
  {e6d6cbd1-6d12-4fdb-9b2c-9aeb9ef0bb43}, !- Inlet Port
  ;                                       !- Outlet Port

OS:Connection,
  {e6d6cbd1-6d12-4fdb-9b2c-9aeb9ef0bb43}, !- Handle
  {8461563e-83ee-4965-a37c-df4d0bce678f}, !- Source Object
  11,                                     !- Outlet Port
  {eeb88658-2771-4391-ab34-f6008473ec3c}, !- Target Object
  2;                                      !- Inlet Port

OS:PortList,
  {89bd0d2a-59c0-4233-8ffa-eec50c03474b}, !- Handle
  {8461563e-83ee-4965-a37c-df4d0bce678f}, !- HVAC Component
  {2a2569eb-7e54-43c0-9854-3bce7c3c7be3}; !- Port 1

OS:PortList,
  {967a38c5-4840-41ce-9943-8b57ace1d27c}, !- Handle
  {8461563e-83ee-4965-a37c-df4d0bce678f}; !- HVAC Component

OS:PortList,
  {f871c569-9d1f-408a-b824-66b39fb148b2}, !- Handle
  {8461563e-83ee-4965-a37c-df4d0bce678f}, !- HVAC Component
  {7fa60cb6-9c42-4bb7-a6c3-cf7609d94699}; !- Port 1

OS:Sizing:Zone,
  {03215158-3d6d-4689-9e57-044a5547d33c}, !- Handle
  {8461563e-83ee-4965-a37c-df4d0bce678f}, !- Zone or ZoneList Name
  SupplyAirTemperature,                   !- Zone Cooling Design Supply Air Temperature Input Method
  14,                                     !- Zone Cooling Design Supply Air Temperature {C}
  11.11,                                  !- Zone Cooling Design Supply Air Temperature Difference {deltaC}
  SupplyAirTemperature,                   !- Zone Heating Design Supply Air Temperature Input Method
  40,                                     !- Zone Heating Design Supply Air Temperature {C}
  11.11,                                  !- Zone Heating Design Supply Air Temperature Difference {deltaC}
  0.0085,                                 !- Zone Cooling Design Supply Air Humidity Ratio {kg-H2O/kg-air}
  0.008,                                  !- Zone Heating Design Supply Air Humidity Ratio {kg-H2O/kg-air}
  ,                                       !- Zone Heating Sizing Factor
  ,                                       !- Zone Cooling Sizing Factor
  DesignDay,                              !- Cooling Design Air Flow Method
  ,                                       !- Cooling Design Air Flow Rate {m3/s}
  ,                                       !- Cooling Minimum Air Flow per Zone Floor Area {m3/s-m2}
  ,                                       !- Cooling Minimum Air Flow {m3/s}
  ,                                       !- Cooling Minimum Air Flow Fraction
  DesignDay,                              !- Heating Design Air Flow Method
  ,                                       !- Heating Design Air Flow Rate {m3/s}
  ,                                       !- Heating Maximum Air Flow per Zone Floor Area {m3/s-m2}
  ,                                       !- Heating Maximum Air Flow {m3/s}
  ,                                       !- Heating Maximum Air Flow Fraction
  No,                                     !- Account for Dedicated Outdoor Air System
  NeutralSupplyAir,                       !- Dedicated Outdoor Air System Control Strategy
  autosize,                               !- Dedicated Outdoor Air Low Setpoint Temperature for Design {C}
  autosize,                               !- Dedicated Outdoor Air High Setpoint Temperature for Design {C}
  Sensible Load Only No Latent Load,      !- Zone Load Sizing Method
  HumidityRatioDifference,                !- Zone Latent Cooling Design Supply Air Humidity Ratio Input Method
  ,                                       !- Zone Dehumidification Design Supply Air Humidity Ratio {kgWater/kgDryAir}
  0.005,                                  !- Zone Cooling Design Supply Air Humidity Ratio Difference {kgWater/kgDryAir}
  HumidityRatioDifference,                !- Zone Latent Heating Design Supply Air Humidity Ratio Input Method
  ,                                       !- Zone Humidification Design Supply Air Humidity Ratio {kgWater/kgDryAir}
  0.005,                                  !- Zone Humidification Design Supply Air Humidity Ratio Difference {kgWater/kgDryAir}
  ,                                       !- Zone Humidistat Dehumidification Set Point Schedule Name
  ,                                       !- Zone Humidistat Humidification Set Point Schedule Name
  ,                                       !- Design Zone Air Distribution Effectiveness in Cooling Mode
  ,                                       !- Design Zone Air Distribution Effectiveness in Heating Mode
  ,                                       !- Design Zone Secondary Recirculation Fraction {dimensionless}
  ,                                       !- Design Minimum Zone Ventilation Efficiency {dimensionless}
  Coincident;                             !- Sizing Option

OS:ZoneHVAC:EquipmentList,
  {e371d413-5388-4e27-a185-c592437ad694}, !- Handle
  Zone HVAC Equipment List 1,             !- Name
  {8461563e-83ee-4965-a37c-df4d0bce678f}, !- Thermal Zone
  ,                                       !- Load Distribution Scheme
  {22ce94ee-1dc3-4014-a1c4-086533b5c715}, !- Zone Equipment 1
  1,                                      !- Zone Equipment Cooling Sequence 1
  1,                                      !- Zone Equipment Heating or No-Load Sequence 1
  {bd6d8cda-16af-4484-8ee4-b90d56eacaef}, !- Zone Equipment Sequential Cooling Fraction Schedule Name 1
  {f6ad63b1-1c4b-4c03-b357-5682925a24cd}; !- Zone Equipment Sequential Heating Fraction Schedule Name 1

OS:AdditionalProperties,
  {c1b3d88c-3709-4508-8866-1194c35c70d6}, !- Handle
  {8461563e-83ee-4965-a37c-df4d0bce678f}, !- Object Name
  ObjectType,                             !- Feature Name 1
  String,                                 !- Feature Data Type 1
  conditioned space;                      !- Feature Value 1

OS:Space,
  {98e7b35b-baa2-4568-a29e-259bd14cc3da}, !- Handle
  conditioned space 1,                    !- Name
  ,                                       !- Space Type Name
  ,                                       !- Default Construction Set Name
  ,                                       !- Default Schedule Set Name
  ,                                       !- Direction of Relative North {deg}
  ,                                       !- X Origin {m}
  ,                                       !- Y Origin {m}
  ,                                       !- Z Origin {m}
  ,                                       !- Building Story Name
  {8461563e-83ee-4965-a37c-df4d0bce678f}, !- Thermal Zone Name
  ,                                       !- Part of Total Floor Area
  ,                                       !- Design Specification Outdoor Air Object Name
  ,                                       !- Building Unit Name
  692.06373070848;                        !- Volume {m3}

OS:Schedule:Ruleset,
  {f60f316a-4c21-4059-b5c9-66673601122a}, !- Handle
  heating setpoint,                       !- Name
  {cce61967-227a-4eb0-b25a-4a373f488a84}, !- Schedule Type Limits Name
  {7cbd9b42-febd-41b1-9dd0-0735284fd7ea}; !- Default Day Schedule Name

OS:Schedule:Day,
  {7cbd9b42-febd-41b1-9dd0-0735284fd7ea}, !- Handle
  heating setpoint default day,           !- Name
  {cce61967-227a-4eb0-b25a-4a373f488a84}, !- Schedule Type Limits Name
  ,                                       !- Interpolate to Timestep
  24,                                     !- Hour 1
  0,                                      !- Minute 1
  0;                                      !- Value Until Time 1

OS:Schedule:Rule,
  {1ae1f77a-d247-4987-8e3e-0783d6121453}, !- Handle
  heating setpoint allday rule,           !- Name
  {f60f316a-4c21-4059-b5c9-66673601122a}, !- Schedule Ruleset Name
  0,                                      !- Rule Order
  {1f76c06f-3746-445b-b258-df834e725d98}, !- Day Schedule Name
  Yes,                                    !- Apply Sunday
  Yes,                                    !- Apply Monday
  Yes,                                    !- Apply Tuesday
  Yes,                                    !- Apply Wednesday
  Yes,                                    !- Apply Thursday
  Yes,                                    !- Apply Friday
  Yes,                                    !- Apply Saturday
  DateRange,                              !- Date Specification Type
  1,                                      !- Start Month
  1,                                      !- Start Day
  12,                                     !- End Month
  31;                                     !- End Day

OS:Schedule:Day,
  {1f76c06f-3746-445b-b258-df834e725d98}, !- Handle
  heating setpoint day,                   !- Name
  {cce61967-227a-4eb0-b25a-4a373f488a84}, !- Schedule Type Limits Name
  ,                                       !- Interpolate to Timestep
  24,                                     !- Hour 1
  0,                                      !- Minute 1
  20;                                     !- Value Until Time 1

OS:Schedule:Ruleset,
  {8c79d855-1748-440e-a7bb-9ba162dc14ef}, !- Handle
  cooling setpoint,                       !- Name
  {cce61967-227a-4eb0-b25a-4a373f488a84}, !- Schedule Type Limits Name
  {d0131589-8c4f-46e2-b5aa-db20ac1bfbf1}; !- Default Day Schedule Name

OS:Schedule:Day,
  {d0131589-8c4f-46e2-b5aa-db20ac1bfbf1}, !- Handle
  cooling setpoint default day,           !- Name
  {cce61967-227a-4eb0-b25a-4a373f488a84}, !- Schedule Type Limits Name
  ,                                       !- Interpolate to Timestep
  24,                                     !- Hour 1
  0,                                      !- Minute 1
  0;                                      !- Value Until Time 1

OS:Schedule:Rule,
  {bff17789-c1aa-4a84-88b0-b6a8bd62d954}, !- Handle
  cooling setpoint allday rule,           !- Name
  {8c79d855-1748-440e-a7bb-9ba162dc14ef}, !- Schedule Ruleset Name
  0,                                      !- Rule Order
  {47d2e07d-05ca-45b7-90d3-b58a2ccfacee}, !- Day Schedule Name
  Yes,                                    !- Apply Sunday
  Yes,                                    !- Apply Monday
  Yes,                                    !- Apply Tuesday
  Yes,                                    !- Apply Wednesday
  Yes,                                    !- Apply Thursday
  Yes,                                    !- Apply Friday
  Yes,                                    !- Apply Saturday
  DateRange,                              !- Date Specification Type
  1,                                      !- Start Month
  1,                                      !- Start Day
  12,                                     !- End Month
  31;                                     !- End Day

OS:Schedule:Day,
  {47d2e07d-05ca-45b7-90d3-b58a2ccfacee}, !- Handle
  cooling setpoint day,                   !- Name
  {cce61967-227a-4eb0-b25a-4a373f488a84}, !- Schedule Type Limits Name
  ,                                       !- Interpolate to Timestep
  24,                                     !- Hour 1
  0,                                      !- Minute 1
  25.5555555555556;                       !- Value Until Time 1

OS:ThermostatSetpoint:DualSetpoint,
  {108cee21-3d09-4274-9866-a78b0aa6e410}, !- Handle
  conditioned space temperature setpoint, !- Name
  {f60f316a-4c21-4059-b5c9-66673601122a}, !- Heating Setpoint Temperature Schedule Name
  {8c79d855-1748-440e-a7bb-9ba162dc14ef}, !- Cooling Setpoint Temperature Schedule Name
  0;                                      !- Temperature Difference Between Cutout And Setpoint {deltaC}

OS:ScheduleTypeLimits,
  {cce61967-227a-4eb0-b25a-4a373f488a84}, !- Handle
  Temperature,                            !- Name
  ,                                       !- Lower Limit Value
  ,                                       !- Upper Limit Value
  Continuous,                             !- Numeric Type
  Temperature;                            !- Unit Type

OS:Surface,
  {236bad35-593a-4fff-a791-fe25dc800f9f}, !- Handle
  Roof1,                                  !- Name
  RoofCeiling,                            !- Surface Type
  {3ea35af4-c879-4c77-82df-fc44b16efeca}, !- Construction Name
  {7725323e-2dda-4c0e-947a-9a8d90e7f322}, !- Space Name
  Outdoors,                               !- Outside Boundary Condition
  ,                                       !- Outside Boundary Condition Object
  SunExposed,                             !- Sun Exposure
  WindExposed,                            !- Wind Exposure
  ,                                       !- View Factor to Ground
  ,                                       !- Number of Vertices
  -26.9347048849634, 58.0557891618865, 2.4384, !- X,Y,Z Vertex 1 {m}
  -26.9347048849634, 46.7895631136661, 8.0715130241102, !- X,Y,Z Vertex 2 {m}
  -14.3386812381136, 46.7895631136661, 8.0715130241102, !- X,Y,Z Vertex 3 {m}
  -14.3386812381136, 58.0557891618865, 2.4384; !- X,Y,Z Vertex 4 {m}

OS:AdditionalProperties,
  {34601401-c8d4-44d0-a56e-09aa15ad214e}, !- Handle
  {236bad35-593a-4fff-a791-fe25dc800f9f}, !- Object Name
  Length,                                 !- Feature Name 1
  Double,                                 !- Feature Data Type 1
  41.325536899113608,                     !- Feature Value 1
  Width,                                  !- Feature Name 2
  Double,                                 !- Feature Data Type 2
  41.325536899113601,                     !- Feature Value 2
  Azimuth,                                !- Feature Name 3
  Integer,                                !- Feature Data Type 3
  0,                                      !- Feature Value 3
  Tilt,                                   !- Feature Name 4
  Double,                                 !- Feature Data Type 4
  0.5,                                    !- Feature Value 4
  SurfaceType,                            !- Feature Name 5
  String,                                 !- Feature Data Type 5
  Roof;                                   !- Feature Value 5

OS:ThermalZone,
  {f3c1dc63-6b2e-425c-bfea-b45154dea524}, !- Handle
  attic - vented,                         !- Name
  1,                                      !- Multiplier
  ,                                       !- Ceiling Height {m}
  356.389957095237,                       !- Volume {m3}
  ,                                       !- Floor Area {m2}
  ,                                       !- Zone Inside Convection Algorithm
  ,                                       !- Zone Outside Convection Algorithm
  ,                                       !- Zone Conditioning Equipment List Name
  {5bd2554f-01c3-4ee2-bf0a-555eda84e034}, !- Zone Air Inlet Port List
  {8fbfcb2e-3a38-4887-972d-b58468504d04}, !- Zone Air Exhaust Port List
  {f55b4cea-61f9-4d13-aff3-9b8b09bbb648}, !- Zone Air Node Name
  {fda0ab94-e846-4e49-8ba0-0b0011b5e04d}, !- Zone Return Air Port List
  ,                                       !- Primary Daylighting Control Name
  ,                                       !- Fraction of Zone Controlled by Primary Daylighting Control
  ,                                       !- Secondary Daylighting Control Name
  ,                                       !- Fraction of Zone Controlled by Secondary Daylighting Control
  ,                                       !- Illuminance Map Name
  ,                                       !- Group Rendering Name
  ,                                       !- Thermostat Name
  No;                                     !- Use Ideal Air Loads

OS:Node,
  {42150750-4f05-463e-8cd9-b814efa5dcea}, !- Handle
  Node 2,                                 !- Name
  {f55b4cea-61f9-4d13-aff3-9b8b09bbb648}, !- Inlet Port
  ;                                       !- Outlet Port

OS:Connection,
  {f55b4cea-61f9-4d13-aff3-9b8b09bbb648}, !- Handle
  {f3c1dc63-6b2e-425c-bfea-b45154dea524}, !- Source Object
  11,                                     !- Outlet Port
  {42150750-4f05-463e-8cd9-b814efa5dcea}, !- Target Object
  2;                                      !- Inlet Port

OS:PortList,
  {5bd2554f-01c3-4ee2-bf0a-555eda84e034}, !- Handle
  {f3c1dc63-6b2e-425c-bfea-b45154dea524}; !- HVAC Component

OS:PortList,
  {8fbfcb2e-3a38-4887-972d-b58468504d04}, !- Handle
  {f3c1dc63-6b2e-425c-bfea-b45154dea524}; !- HVAC Component

OS:PortList,
  {fda0ab94-e846-4e49-8ba0-0b0011b5e04d}, !- Handle
  {f3c1dc63-6b2e-425c-bfea-b45154dea524}; !- HVAC Component

OS:Sizing:Zone,
  {24a6df0d-86d9-4f1e-ba8f-3c7968b012e4}, !- Handle
  {f3c1dc63-6b2e-425c-bfea-b45154dea524}, !- Zone or ZoneList Name
  SupplyAirTemperature,                   !- Zone Cooling Design Supply Air Temperature Input Method
  14,                                     !- Zone Cooling Design Supply Air Temperature {C}
  11.11,                                  !- Zone Cooling Design Supply Air Temperature Difference {deltaC}
  SupplyAirTemperature,                   !- Zone Heating Design Supply Air Temperature Input Method
  40,                                     !- Zone Heating Design Supply Air Temperature {C}
  11.11,                                  !- Zone Heating Design Supply Air Temperature Difference {deltaC}
  0.0085,                                 !- Zone Cooling Design Supply Air Humidity Ratio {kg-H2O/kg-air}
  0.008,                                  !- Zone Heating Design Supply Air Humidity Ratio {kg-H2O/kg-air}
  ,                                       !- Zone Heating Sizing Factor
  ,                                       !- Zone Cooling Sizing Factor
  DesignDay,                              !- Cooling Design Air Flow Method
  ,                                       !- Cooling Design Air Flow Rate {m3/s}
  ,                                       !- Cooling Minimum Air Flow per Zone Floor Area {m3/s-m2}
  ,                                       !- Cooling Minimum Air Flow {m3/s}
  ,                                       !- Cooling Minimum Air Flow Fraction
  DesignDay,                              !- Heating Design Air Flow Method
  ,                                       !- Heating Design Air Flow Rate {m3/s}
  ,                                       !- Heating Maximum Air Flow per Zone Floor Area {m3/s-m2}
  ,                                       !- Heating Maximum Air Flow {m3/s}
  ,                                       !- Heating Maximum Air Flow Fraction
  No,                                     !- Account for Dedicated Outdoor Air System
  NeutralSupplyAir,                       !- Dedicated Outdoor Air System Control Strategy
  autosize,                               !- Dedicated Outdoor Air Low Setpoint Temperature for Design {C}
  autosize,                               !- Dedicated Outdoor Air High Setpoint Temperature for Design {C}
  Sensible Load Only No Latent Load,      !- Zone Load Sizing Method
  HumidityRatioDifference,                !- Zone Latent Cooling Design Supply Air Humidity Ratio Input Method
  ,                                       !- Zone Dehumidification Design Supply Air Humidity Ratio {kgWater/kgDryAir}
  0.005,                                  !- Zone Cooling Design Supply Air Humidity Ratio Difference {kgWater/kgDryAir}
  HumidityRatioDifference,                !- Zone Latent Heating Design Supply Air Humidity Ratio Input Method
  ,                                       !- Zone Humidification Design Supply Air Humidity Ratio {kgWater/kgDryAir}
  0.005,                                  !- Zone Humidification Design Supply Air Humidity Ratio Difference {kgWater/kgDryAir}
  ,                                       !- Zone Humidistat Dehumidification Set Point Schedule Name
  ,                                       !- Zone Humidistat Humidification Set Point Schedule Name
  ,                                       !- Design Zone Air Distribution Effectiveness in Cooling Mode
  ,                                       !- Design Zone Air Distribution Effectiveness in Heating Mode
  ,                                       !- Design Zone Secondary Recirculation Fraction {dimensionless}
  ,                                       !- Design Minimum Zone Ventilation Efficiency {dimensionless}
  Coincident;                             !- Sizing Option

OS:ZoneHVAC:EquipmentList,
  {195f9d42-23c6-42ec-adcf-efde9a6d8844}, !- Handle
  Zone HVAC Equipment List 2,             !- Name
  {f3c1dc63-6b2e-425c-bfea-b45154dea524}; !- Thermal Zone

OS:AdditionalProperties,
  {564d8a47-0c1d-44d8-95f0-0c0f9c98d12a}, !- Handle
  {f3c1dc63-6b2e-425c-bfea-b45154dea524}, !- Object Name
  ObjectType,                             !- Feature Name 1
  String,                                 !- Feature Data Type 1
  attic - vented;                         !- Feature Value 1

OS:Space,
  {7725323e-2dda-4c0e-947a-9a8d90e7f322}, !- Handle
  attic - vented 1,                       !- Name
  ,                                       !- Space Type Name
  ,                                       !- Default Construction Set Name
  ,                                       !- Default Schedule Set Name
  ,                                       !- Direction of Relative North {deg}
  ,                                       !- X Origin {m}
  ,                                       !- Y Origin {m}
  ,                                       !- Z Origin {m}
  ,                                       !- Building Story Name
  {f3c1dc63-6b2e-425c-bfea-b45154dea524}, !- Thermal Zone Name
  ,                                       !- Part of Total Floor Area
  ,                                       !- Design Specification Outdoor Air Object Name
  ,                                       !- Building Unit Name
  356.389957095237;                       !- Volume {m3}

OS:Material,
  {780478d8-c107-42e9-871b-86e0c44509a7}, !- Handle
  asphalt or fiberglass shingles,         !- Name
  Rough,                                  !- Roughness
  0.00635,                                !- Thickness {m}
  0.162714,                               !- Conductivity {W/m-K}
  1121.4,                                 !- Density {kg/m3}
  1465.45,                                !- Specific Heat {J/kg-K}
  0.9,                                    !- Thermal Absorptance
  0.85,                                   !- Solar Absorptance