
OS:Version,
  {08f7ec05-c16f-49f9-8b49-f07499fe6148}, !- Handle
  3.10.0;                                 !- Version Identifier

OS:SimulationControl,
  {eb53a314-1b1d-4993-982b-17deecc761d3}, !- Handle
  ,                                       !- Do Zone Sizing Calculation
  ,                                       !- Do System Sizing Calculation
  ,                                       !- Do Plant Sizing Calculation
  No;                                     !- Run Simulation for Sizing Periods

OS:Timestep,
  {0bf43a66-6716-4f9e-a2e3-c059f8403060}, !- Handle
  1;                                      !- Number of Timesteps per Hour

OS:ShadowCalculation,
  {2937e646-7dc5-45e6-b76a-d4345e5a03ab}, !- Handle
  PolygonClipping,                        !- Shading Calculation Method
  ,                                       !- Shading Calculation Update Frequency Method
  20,                                     !- Shading Calculation Update Frequency
  200,                                    !- Maximum Figures in Shadow Overlap Calculations
  ,                                       !- Polygon Clipping Algorithm
  512,                                    !- Pixel Counting Resolution
  ,                                       !- Sky Diffuse Modeling Algorithm
  No,                                     !- Output External Shading Calculation Results
  No,                                     !- Disable Self-Shading Within Shading Zone Groups
  No;                                     !- Disable Self-Shading From Shading Zone Groups to Other Zones

OS:SurfaceConvectionAlgorithm:Outside,
  {2c661ebf-963b-45b4-8d9b-6fb4eed6d248}, !- Handle
  DOE-2;                                  !- Algorithm

OS:SurfaceConvectionAlgorithm:Inside,
  {e9692bd4-b515-4d08-971f-e9bacd1746d9}, !- Handle
  TARP;                                   !- Algorithm

OS:ZoneCapacitanceMultiplier:ResearchSpecial,
  {ac9bdb11-f1d4-41b2-bce9-78ba66a42307}, !- Handle
  7,                                      !- Temperature Capacity Multiplier
  15,                                     !- Humidity Capacity Multiplier
  ;                                       !- Carbon Dioxide Capacity Multiplier

OS:ConvergenceLimits,
  {d2fcd78b-d280-46f1-9c49-be183d7812f0}, !- Handle
  0;                                      !- Minimum System Timestep {minutes}

OS:RunPeriod,
  {3643db77-2d0b-47be-8085-42db943af769}, !- Handle
  Run Period 1,                           !- Name
  1,                                      !- Begin Month
  1,                                      !- Begin Day of Month
  12,                                     !- End Month
  31,                                     !- End Day of Month
  ,                                       !- Use Weather File Holidays and Special Days
  ,                                       !- Use Weather File Daylight Saving Period
  ,                                       !- Apply Weekend Holiday Rule
  ,                                       !- Use Weather File Rain Indicators
  ,                                       !- Use Weather File Snow Indicators
  ;                                       !- Number of Times Runperiod to be Repeated

OS:PerformancePrecisionTradeoffs,
  {befc1c73-4c85-48fb-add0-041999ae1dfb}, !- Handle
  ,                                       !- Use Coil Direct Solutions
  CarrollMRT;                             !- Zone Radiant Exchange Algorithm

OS:WeatherFile,
  {91b3fda4-f7e9-487b-bdff-11eecb5d31f1}, !- Handle
  Buffalo Niagara Intl Ap,                !- City
  NY,                                     !- State Province Region
  USA,                                    !- Country
  TMY3,                                   !- Data Source
  725280,                                 !- WMO Number
  42.93,                                  !- Latitude {deg}
  -78.73,                                 !- Longitude {deg}
  -5,                                     !- Time Zone {hr}
  215,                                    !- Elevation {m}
  /Users/nmoore/github/urbanopt-example-geojson-project/example_project/weather/USA_NY_Buffalo-Greater.Buffalo.Intl.AP.725280_TMY3.epw, !- Url
  6B50E0FF,                               !- Checksum
  ,                                       !- Start Date Actual Year
  Sunday;                                 !- Start Day of Week

OS:YearDescription,
  {409f130c-6e2f-4983-9076-4d0d0845d66b}, !- Handle
  2007,                                   !- Calendar Year
  ,                                       !- Day of Week for Start Day
  ;                                       !- Is Leap Year

OS:Site,
  {85874dd4-4e38-4fc2-957f-b936b2583032}, !- Handle
  Buffalo Niagara Intl Ap_NY,             !- Name
  42.93,                                  !- Latitude {deg}
  -78.73,                                 !- Longitude {deg}
  -5,                                     !- Time Zone {hr}
  215,                                    !- Elevation {m}
  Suburbs,                                !- Terrain
  Yes;                                    !- Keep Site Location Information

OS:RunPeriodControl:DaylightSavingTime,
  {bc1adfc5-dff3-4c3b-b2f3-1299869eccf7}, !- Handle
  Mar 12,                                 !- Start Date
  Nov 5;                                  !- End Date

OS:Site:GroundTemperature:Shallow,
  {1362dd64-ddeb-4956-875d-80045b336163}, !- Handle
  4.30207395723828,                       !- January Surface Ground Temperature {C}
  2.29327249652502,                       !- February Surface Ground Temperature {C}
  2.13240047156047,                       !- March Surface Ground Temperature {C}
  3.08567940719286,                       !- April Surface Ground Temperature {C}
  6.91256312497526,                       !- May Surface Ground Temperature {C}
  10.7216195949507,                       !- June Surface Ground Temperature {C}
  14.0238679822574,                       !- July Surface Ground Temperature {C}
  16.1157611184724,                       !- August Surface Ground Temperature {C}
  16.2934789303462,                       !- September Surface Ground Temperature {C}
  14.5920754632847,                       !- October Surface Ground Temperature {C}
  11.374036348653,                        !- November Surface Ground Temperature {C}
  7.68182621661674;                       !- December Surface Ground Temperature {C}

OS:ThermalZone,
  {d21a7103-1b4c-4c09-bf7f-7d933216c83f}, !- Handle
  conditioned space,                      !- Name
  1,                                      !- Multiplier
  ,                                       !- Ceiling Height {m}
  692.06373070848,                        !- Volume {m3}
  ,                                       !- Floor Area {m2}
  ,                                       !- Zone Inside Convection Algorithm
  ,                                       !- Zone Outside Convection Algorithm
  ,                                       !- Zone Conditioning Equipment List Name
  {43f1de6a-0812-4388-89f8-4b97723cb7e2}, !- Zone Air Inlet Port List
  {ccac7717-a5c2-40cd-adf7-45441df33f52}, !- Zone Air Exhaust Port List
  {3956f7fa-7057-4a72-a372-b2ba04443e65}, !- Zone Air Node Name
  {ca99d341-b48e-458d-bda0-d2e3c818ea13}, !- Zone Return Air Port List
  ,                                       !- Primary Daylighting Control Name
  ,                                       !- Fraction of Zone Controlled by Primary Daylighting Control
  ,                                       !- Secondary Daylighting Control Name
  ,                                       !- Fraction of Zone Controlled by Secondary Daylighting Control
  ,                                       !- Illuminance Map Name
  ,                                       !- Group Rendering Name
  {9c43d4d5-1bdc-4f6c-a4fb-cc69bc039ca7}, !- Thermostat Name
  No;                                     !- Use Ideal Air Loads

OS:Node,
  {643a6484-d110-4b08-896a-aa4772c0a993}, !- Handle
  Node 1,                                 !- Name
  {3956f7fa-7057-4a72-a372-b2ba04443e65}, !- Inlet Port
  ;                                       !- Outlet Port

OS:Connection,
  {3956f7fa-7057-4a72-a372-b2ba04443e65}, !- Handle
  {d21a7103-1b4c-4c09-bf7f-7d933216c83f}, !- Source Object
  11,                                     !- Outlet Port
  {643a6484-d110-4b08-896a-aa4772c0a993}, !- Target Object
  2;                                      !- Inlet Port

OS:PortList,
  {43f1de6a-0812-4388-89f8-4b97723cb7e2}, !- Handle
  {d21a7103-1b4c-4c09-bf7f-7d933216c83f}, !- HVAC Component
  {d39ec70f-e609-458e-82ed-7d4c19abbcfc}; !- Port 1

OS:PortList,
  {ccac7717-a5c2-40cd-adf7-45441df33f52}, !- Handle
  {d21a7103-1b4c-4c09-bf7f-7d933216c83f}; !- HVAC Component

OS:PortList,
  {ca99d341-b48e-458d-bda0-d2e3c818ea13}, !- Handle
  {d21a7103-1b4c-4c09-bf7f-7d933216c83f}, !- HVAC Component
  {6b1c4300-971c-491d-ad5b-90745a07f5d7}; !- Port 1

OS:Sizing:Zone,
  {ddfb24e5-f0e0-4d76-973d-eb0d5c58d0be}, !- Handle
  {d21a7103-1b4c-4c09-bf7f-7d933216c83f}, !- Zone or ZoneList Name
  SupplyAirTemperature,                   !- Zone Cooling Design Supply Air Temperature Input Method
  14,                                     !- Zone Cooling Design Supply Air Temperature {C}
  11.11,                                  !- Zone Cooling Design Supply Air Temperature Difference {deltaC}
  SupplyAirTemperature,                   !- Zone Heating Design Supply Air Temperature Input Method
  40,                                     !- Zone Heating Design Supply Air Temperature {C}
  11.11,                                  !- Zone Heating Design Supply Air Temperature Difference {deltaC}
  0.0085,                                 !- Zone Cooling Design Supply Air Humidity Ratio {kg-H2O/kg-air}
  0.008,                                  !- Zone Heating Design Supply Air Humidity Ratio {kg-H2O/kg-air}
  ,                                       !- Zone Heating Sizing Factor
  ,                                       !- Zone Cooling Sizing Factor
  DesignDay,                              !- Cooling Design Air Flow Method
  ,                                       !- Cooling Design Air Flow Rate {m3/s}
  ,                                       !- Cooling Minimum Air Flow per Zone Floor Area {m3/s-m2}
  ,                                       !- Cooling Minimum Air Flow {m3/s}
  ,                                       !- Cooling Minimum Air Flow Fraction
  DesignDay,                              !- Heating Design Air Flow Method
  ,                                       !- Heating Design Air Flow Rate {m3/s}
  ,                                       !- Heating Maximum Air Flow per Zone Floor Area {m3/s-m2}
  ,                                       !- Heating Maximum Air Flow {m3/s}
  ,                                       !- Heating Maximum Air Flow Fraction
  No,                                     !- Account for Dedicated Outdoor Air System
  NeutralSupplyAir,                       !- Dedicated Outdoor Air System Control Strategy
  autosize,                               !- Dedicated Outdoor Air Low Setpoint Temperature for Design {C}
  autosize,                               !- Dedicated Outdoor Air High Setpoint Temperature for Design {C}
  Sensible Load Only No Latent Load,      !- Zone Load Sizing Method
  HumidityRatioDifference,                !- Zone Latent Cooling Design Supply Air Humidity Ratio Input Method
  ,                                       !- Zone Dehumidification Design Supply Air Humidity Ratio {kgWater/kgDryAir}
  0.005,                                  !- Zone Cooling Design Supply Air Humidity Ratio Difference {kgWater/kgDryAir}
  HumidityRatioDifference,                !- Zone Latent Heating Design Supply Air Humidity Ratio Input Method
  ,                                       !- Zone Humidification Design Supply Air Humidity Ratio {kgWater/kgDryAir}
  0.005,                                  !- Zone Humidification Design Supply Air Humidity Ratio Difference {kgWater/kgDryAir}
  ,                                       !- Zone Humidistat Dehumidification Set Point Schedule Name
  ,                                       !- Zone Humidistat Humidification Set Point Schedule Name
  ,                                       !- Design Zone Air Distribution Effectiveness in Cooling Mode
  ,                                       !- Design Zone Air Distribution Effectiveness in Heating Mode
  ,                                       !- Design Zone Secondary Recirculation Fraction {dimensionless}
  ,                                       !- Design Minimum Zone Ventilation Efficiency {dimensionless}
  Coincident;                             !- Sizing Option

OS:ZoneHVAC:EquipmentList,
  {e6a918c8-664d-4a44-8a34-c5d98d1fa138}, !- Handle
  Zone HVAC Equipment List 1,             !- Name
  {d21a7103-1b4c-4c09-bf7f-7d933216c83f}, !- Thermal Zone
  ,                                       !- Load Distribution Scheme
  {e67cc19f-387e-4a58-80ca-a26a3ea3cb8f}, !- Zone Equipment 1
  1,                                      !- Zone Equipment Cooling Sequence 1
  1,                                      !- Zone Equipment Heating or No-Load Sequence 1
  {59ae8590-6b93-4d6d-a57f-d2eac1f4d613}, !- Zone Equipment Sequential Cooling Fraction Schedule Name 1
  {3f88add0-4b31-45ca-8722-c6905ddcae05}; !- Zone Equipment Sequential Heating Fraction Schedule Name 1

OS:AdditionalProperties,
  {54b58e58-8ac9-4ce0-a5cb-78f7afad3f0b}, !- Handle
  {d21a7103-1b4c-4c09-bf7f-7d933216c83f}, !- Object Name
  ObjectType,                             !- Feature Name 1
  String,                                 !- Feature Data Type 1
  conditioned space;                      !- Feature Value 1

OS:Space,
  {50c6b808-bdd2-4b4f-9d4f-5b48bbd8fcbc}, !- Handle
  conditioned space 1,                    !- Name
  ,                                       !- Space Type Name
  ,                                       !- Default Construction Set Name
  ,                                       !- Default Schedule Set Name
  ,                                       !- Direction of Relative North {deg}
  ,                                       !- X Origin {m}
  ,                                       !- Y Origin {m}
  ,                                       !- Z Origin {m}
  ,                                       !- Building Story Name
  {d21a7103-1b4c-4c09-bf7f-7d933216c83f}, !- Thermal Zone Name
  ,                                       !- Part of Total Floor Area
  ,                                       !- Design Specification Outdoor Air Object Name
  ,                                       !- Building Unit Name
  692.06373070848;                        !- Volume {m3}

OS:Schedule:Ruleset,
  {aae65fbc-dc35-4721-bf73-6b128e3dcd99}, !- Handle
  heating setpoint,                       !- Name
  {875cc1bd-9fb7-4a18-bf5a-64854041becf}, !- Schedule Type Limits Name
  {de9531ff-6f61-4959-a9db-f03ebd769206}; !- Default Day Schedule Name

OS:Schedule:Day,
  {de9531ff-6f61-4959-a9db-f03ebd769206}, !- Handle
  heating setpoint default day,           !- Name
  {875cc1bd-9fb7-4a18-bf5a-64854041becf}, !- Schedule Type Limits Name
  ,                                       !- Interpolate to Timestep
  24,                                     !- Hour 1
  0,                                      !- Minute 1
  0;                                      !- Value Until Time 1

OS:Schedule:Rule,
  {13612a7a-68bd-4a6a-9a97-b901a5c9965c}, !- Handle
  heating setpoint allday rule,           !- Name
  {aae65fbc-dc35-4721-bf73-6b128e3dcd99}, !- Schedule Ruleset Name
  0,                                      !- Rule Order
  {4bac7f65-0a27-4479-9a7e-c3fde19c1b49}, !- Day Schedule Name
  Yes,                                    !- Apply Sunday
  Yes,                                    !- Apply Monday
  Yes,                                    !- Apply Tuesday
  Yes,                                    !- Apply Wednesday
  Yes,                                    !- Apply Thursday
  Yes,                                    !- Apply Friday
  Yes,                                    !- Apply Saturday
  DateRange,                              !- Date Specification Type
  1,                                      !- Start Month
  1,                                      !- Start Day
  12,                                     !- End Month
  31;                                     !- End Day

OS:Schedule:Day,
  {4bac7f65-0a27-4479-9a7e-c3fde19c1b49}, !- Handle
  heating setpoint day,                   !- Name
  {875cc1bd-9fb7-4a18-bf5a-64854041becf}, !- Schedule Type Limits Name
  ,                                       !- Interpolate to Timestep
  24,                                     !- Hour 1
  0,                                      !- Minute 1
  20;                                     !- Value Until Time 1

OS:Schedule:Ruleset,
  {be3b639b-9e47-4b18-9119-10c6bc890ec9}, !- Handle
  cooling setpoint,                       !- Name
  {875cc1bd-9fb7-4a18-bf5a-64854041becf}, !- Schedule Type Limits Name
  {f79251f7-b834-43b0-99c3-c8c62580ad98}; !- Default Day Schedule Name

OS:Schedule:Day,
  {f79251f7-b834-43b0-99c3-c8c62580ad98}, !- Handle
  cooling setpoint default day,           !- Name
  {875cc1bd-9fb7-4a18-bf5a-64854041becf}, !- Schedule Type Limits Name
  ,                                       !- Interpolate to Timestep
  24,                                     !- Hour 1
  0,                                      !- Minute 1
  0;                                      !- Value Until Time 1

OS:Schedule:Rule,
  {5913a0bc-1136-4a74-9225-e25597ba8706}, !- Handle
  cooling setpoint allday rule,           !- Name
  {be3b639b-9e47-4b18-9119-10c6bc890ec9}, !- Schedule Ruleset Name
  0,                                      !- Rule Order
  {28e126a0-50ce-4055-8b94-fd83b661560a}, !- Day Schedule Name
  Yes,                                    !- Apply Sunday
  Yes,                                    !- Apply Monday
  Yes,                                    !- Apply Tuesday
  Yes,                                    !- Apply Wednesday
  Yes,                                    !- Apply Thursday
  Yes,                                    !- Apply Friday
  Yes,                                    !- Apply Saturday
  DateRange,                              !- Date Specification Type
  1,                                      !- Start Month
  1,                                      !- Start Day
  12,                                     !- End Month
  31;                                     !- End Day

OS:Schedule:Day,
  {28e126a0-50ce-4055-8b94-fd83b661560a}, !- Handle
  cooling setpoint day,                   !- Name
  {875cc1bd-9fb7-4a18-bf5a-64854041becf}, !- Schedule Type Limits Name
  ,                                       !- Interpolate to Timestep
  24,                                     !- Hour 1
  0,                                      !- Minute 1
  25.5555555555556;                       !- Value Until Time 1

OS:ThermostatSetpoint:DualSetpoint,
  {9c43d4d5-1bdc-4f6c-a4fb-cc69bc039ca7}, !- Handle
  conditioned space temperature setpoint, !- Name
  {aae65fbc-dc35-4721-bf73-6b128e3dcd99}, !- Heating Setpoint Temperature Schedule Name
  {be3b639b-9e47-4b18-9119-10c6bc890ec9}, !- Cooling Setpoint Temperature Schedule Name
  0;                                      !- Temperature Difference Between Cutout And Setpoint {deltaC}

OS:ScheduleTypeLimits,
  {875cc1bd-9fb7-4a18-bf5a-64854041becf}, !- Handle
  Temperature,                            !- Name
  ,                                       !- Lower Limit Value
  ,                                       !- Upper Limit Value
  Continuous,                             !- Numeric Type
  Temperature;                            !- Unit Type

OS:Surface,
  {181062a2-1218-48f8-8b9c-d1ee30cd9a94}, !- Handle
  Roof1,                                  !- Name
  RoofCeiling,                            !- Surface Type
  {b167ecdd-3c0d-432d-a0b3-9085e19d6c57}, !- Construction Name
  {c55ff08b-de20-41a8-b73c-5b390144ad19}, !- Space Name
  Outdoors,                               !- Outside Boundary Condition
  ,                                       !- Outside Boundary Condition Object
  SunExposed,                             !- Sun Exposure
  WindExposed,                            !- Wind Exposure
  ,                                       !- View Factor to Ground
  ,                                       !- Number of Vertices
  -26.9347048849634, 58.0557891618865, 2.4384, !- X,Y,Z Vertex 1 {m}
  -26.9347048849634, 46.7895631136661, 8.0715130241102, !- X,Y,Z Vertex 2 {m}
  -14.3386812381136, 46.7895631136661, 8.0715130241102, !- X,Y,Z Vertex 3 {m}
  -14.3386812381136, 58.0557891618865, 2.4384; !- X,Y,Z Vertex 4 {m}

OS:AdditionalProperties,
  {0e0010ce-138d-462a-9ef0-eacff8f7e967}, !- Handle
  {181062a2-1218-48f8-8b9c-d1ee30cd9a94}, !- Object Name
  Length,                                 !- Feature Name 1
  Double,                                 !- Feature Data Type 1
  41.325536899113608,                     !- Feature Value 1
  Width,                                  !- Feature Name 2
  Double,                                 !- Feature Data Type 2
  41.325536899113601,                     !- Feature Value 2
  Azimuth,                                !- Feature Name 3
  Integer,                                !- Feature Data Type 3
  0,                                      !- Feature Value 3
  Tilt,                                   !- Feature Name 4
  Double,                                 !- Feature Data Type 4
  0.5,                                    !- Feature Value 4
  SurfaceType,                            !- Feature Name 5
  String,                                 !- Feature Data Type 5
  Roof;                                   !- Feature Value 5

OS:ThermalZone,
  {34eda39f-3504-40ce-8e36-2ce93e290cac}, !- Handle
  attic - vented,                         !- Name
  1,                                      !- Multiplier
  ,                                       !- Ceiling Height {m}
  356.390921899745,                       !- Volume {m3}
  ,                                       !- Floor Area {m2}
  ,                                       !- Zone Inside Convection Algorithm
  ,                                       !- Zone Outside Convection Algorithm
  ,                                       !- Zone Conditioning Equipment List Name
  {0551d618-5c75-4cf4-8293-913182bcf675}, !- Zone Air Inlet Port List
  {e41a7d27-1f61-4ec1-bce2-554730af2694}, !- Zone Air Exhaust Port List
  {7a65f358-b7a0-4a91-92e8-68298ae6608f}, !- Zone Air Node Name
  {d511d3cd-c263-4697-9429-c0075c9dbd3a}, !- Zone Return Air Port List
  ,                                       !- Primary Daylighting Control Name
  ,                                       !- Fraction of Zone Controlled by Primary Daylighting Control
  ,                                       !- Secondary Daylighting Control Name
  ,                                       !- Fraction of Zone Controlled by Secondary Daylighting Control
  ,                                       !- Illuminance Map Name
  ,                                       !- Group Rendering Name
  ,                                       !- Thermostat Name
  No;                                     !- Use Ideal Air Loads

OS:Node,
  {af92db70-5577-4be1-a0b1-9272e0bd278e}, !- Handle
  Node 2,                                 !- Name
  {7a65f358-b7a0-4a91-92e8-68298ae6608f}, !- Inlet Port
  ;                                       !- Outlet Port

OS:Connection,
  {7a65f358-b7a0-4a91-92e8-68298ae6608f}, !- Handle
  {34eda39f-3504-40ce-8e36-2ce93e290cac}, !- Source Object
  11,                                     !- Outlet Port
  {af92db70-5577-4be1-a0b1-9272e0bd278e}, !- Target Object
  2;                                      !- Inlet Port

OS:PortList,
  {0551d618-5c75-4cf4-8293-913182bcf675}, !- Handle
  {34eda39f-3504-40ce-8e36-2ce93e290cac}; !- HVAC Component

OS:PortList,
  {e41a7d27-1f61-4ec1-bce2-554730af2694}, !- Handle
  {34eda39f-3504-40ce-8e36-2ce93e290cac}; !- HVAC Component

OS:PortList,
  {d511d3cd-c263-4697-9429-c0075c9dbd3a}, !- Handle
  {34eda39f-3504-40ce-8e36-2ce93e290cac}; !- HVAC Component

OS:Sizing:Zone,
  {533f6ee1-8fb0-47aa-adb2-b5660dbffcd3}, !- Handle
  {34eda39f-3504-40ce-8e36-2ce93e290cac}, !- Zone or ZoneList Name
  SupplyAirTemperature,                   !- Zone Cooling Design Supply Air Temperature Input Method
  14,                                     !- Zone Cooling Design Supply Air Temperature {C}
  11.11,                                  !- Zone Cooling Design Supply Air Temperature Difference {deltaC}
  SupplyAirTemperature,                   !- Zone Heating Design Supply Air Temperature Input Method
  40,                                     !- Zone Heating Design Supply Air Temperature {C}
  11.11,                                  !- Zone Heating Design Supply Air Temperature Difference {deltaC}
  0.0085,                                 !- Zone Cooling Design Supply Air Humidity Ratio {kg-H2O/kg-air}
  0.008,                                  !- Zone Heating Design Supply Air Humidity Ratio {kg-H2O/kg-air}
  ,                                       !- Zone Heating Sizing Factor
  ,                                       !- Zone Cooling Sizing Factor
  DesignDay,                              !- Cooling Design Air Flow Method
  ,                                       !- Cooling Design Air Flow Rate {m3/s}
  ,                                       !- Cooling Minimum Air Flow per Zone Floor Area {m3/s-m2}
  ,                                       !- Cooling Minimum Air Flow {m3/s}
  ,                                       !- Cooling Minimum Air Flow Fraction
  DesignDay,                              !- Heating Design Air Flow Method
  ,                                       !- Heating Design Air Flow Rate {m3/s}
  ,                                       !- Heating Maximum Air Flow per Zone Floor Area {m3/s-m2}
  ,                                       !- Heating Maximum Air Flow {m3/s}
  ,                                       !- Heating Maximum Air Flow Fraction
  No,                                     !- Account for Dedicated Outdoor Air System
  NeutralSupplyAir,                       !- Dedicated Outdoor Air System Control Strategy
  autosize,                               !- Dedicated Outdoor Air Low Setpoint Temperature for Design {C}
  autosize,                               !- Dedicated Outdoor Air High Setpoint Temperature for Design {C}
  Sensible Load Only No Latent Load,      !- Zone Load Sizing Method
  HumidityRatioDifference,                !- Zone Latent Cooling Design Supply Air Humidity Ratio Input Method
  ,                                       !- Zone Dehumidification Design Supply Air Humidity Ratio {kgWater/kgDryAir}
  0.005,                                  !- Zone Cooling Design Supply Air Humidity Ratio Difference {kgWater/kgDryAir}
  HumidityRatioDifference,                !- Zone Latent Heating Design Supply Air Humidity Ratio Input Method
  ,                                       !- Zone Humidification Design Supply Air Humidity Ratio {kgWater/kgDryAir}
  0.005,                                  !- Zone Humidification Design Supply Air Humidity Ratio Difference {kgWater/kgDryAir}
  ,                                       !- Zone Humidistat Dehumidification Set Point Schedule Name
  ,                                       !- Zone Humidistat Humidification Set Point Schedule Name
  ,                                       !- Design Zone Air Distribution Effectiveness in Cooling Mode
  ,                                       !- Design Zone Air Distribution Effectiveness in Heating Mode
  ,                                       !- Design Zone Secondary Recirculation Fraction {dimensionless}
  ,                                       !- Design Minimum Zone Ventilation Efficiency {dimensionless}
  Coincident;                             !- Sizing Option

OS:ZoneHVAC:EquipmentList,
  {176b15ff-4711-41b7-b542-c87e8b84be82}, !- Handle
  Zone HVAC Equipment List 2,             !- Name
  {34eda39f-3504-40ce-8e36-2ce93e290cac}; !- Thermal Zone

OS:AdditionalProperties,
  {aa6c0365-c84f-4f47-bf91-a56c59886dd9}, !- Handle
  {34eda39f-3504-40ce-8e36-2ce93e290cac}, !- Object Name
  ObjectType,                             !- Feature Name 1
  String,                                 !- Feature Data Type 1
  attic - vented;                         !- Feature Value 1

OS:Space,
  {c55ff08b-de20-41a8-b73c-5b390144ad19}, !- Handle
  attic - vented 1,                       !- Name
  ,                                       !- Space Type Name
  ,                                       !- Default Construction Set Name
  ,                                       !- Default Schedule Set Name
  ,                                       !- Direction of Relative North {deg}
  ,                                       !- X Origin {m}
  ,                                       !- Y Origin {m}
  ,                                       !- Z Origin {m}
  ,                                       !- Building Story Name
  {34eda39f-3504-40ce-8e36-2ce93e290cac}, !- Thermal Zone Name
  ,                                       !- Part of Total Floor Area
  ,                                       !- Design Specification Outdoor Air Object Name
  ,                                       !- Building Unit Name
  356.390921899745;                       !- Volume {m3}

OS:Material,
  {38407b60-2ac3-481d-93fe-1c1880183916}, !- Handle
  asphalt or fiberglass shingles,         !- Name
  Rough,                                  !- Roughness
  0.00635,                                !- Thickness {m}
  0.162714,                               !- Conductivity {W/m-K}
  1121.4,                                 !- Density {kg/m3}
  1465.45,                                !- Specific Heat {J/kg-K}
  0.9,                                    !- Thermal Absorptance
  0.85,                                   !- Solar Absorptance