
OS:Version,
  {ca9b305e-930f-4890-bbc2-b35a9f141fdd}, !- Handle
  3.9.0;                                  !- Version Identifier

OS:SimulationControl,
  {f56c0346-e8ff-493b-9ab5-966b32196f56}, !- Handle
  ,                                       !- Do Zone Sizing Calculation
  ,                                       !- Do System Sizing Calculation
  ,                                       !- Do Plant Sizing Calculation
  No;                                     !- Run Simulation for Sizing Periods

OS:Timestep,
  {c78c2045-63db-49fc-812a-169c3478a271}, !- Handle
  1;                                      !- Number of Timesteps per Hour

OS:ShadowCalculation,
  {d4d7332e-5b11-4059-b920-70f76e56fcec}, !- Handle
  PolygonClipping,                        !- Shading Calculation Method
  ,                                       !- Shading Calculation Update Frequency Method
  20,                                     !- Shading Calculation Update Frequency
  200,                                    !- Maximum Figures in Shadow Overlap Calculations
  ,                                       !- Polygon Clipping Algorithm
  512,                                    !- Pixel Counting Resolution
  ,                                       !- Sky Diffuse Modeling Algorithm
  No,                                     !- Output External Shading Calculation Results
  No,                                     !- Disable Self-Shading Within Shading Zone Groups
  No;                                     !- Disable Self-Shading From Shading Zone Groups to Other Zones

OS:SurfaceConvectionAlgorithm:Outside,
  {6f03525b-aa00-41f8-96f9-4ec87a22359b}, !- Handle
  DOE-2;                                  !- Algorithm

OS:SurfaceConvectionAlgorithm:Inside,
  {cae15970-e964-4bb2-911e-447f030d1a69}, !- Handle
  TARP;                                   !- Algorithm

OS:ZoneCapacitanceMultiplier:ResearchSpecial,
  {36bec128-9ab3-46c6-bf70-a2fe2223e7d6}, !- Handle
  7,                                      !- Temperature Capacity Multiplier
  15,                                     !- Humidity Capacity Multiplier
  ;                                       !- Carbon Dioxide Capacity Multiplier

OS:ConvergenceLimits,
  {4e09cca4-013f-4071-8c07-d62f076d12a6}, !- Handle
  0;                                      !- Minimum System Timestep {minutes}

OS:RunPeriod,
  {9bc3f73b-265b-45d0-891c-d1161c8efc8b}, !- Handle
  Run Period 1,                           !- Name
  1,                                      !- Begin Month
  1,                                      !- Begin Day of Month
  12,                                     !- End Month
  31,                                     !- End Day of Month
  ,                                       !- Use Weather File Holidays and Special Days
  ,                                       !- Use Weather File Daylight Saving Period
  ,                                       !- Apply Weekend Holiday Rule
  ,                                       !- Use Weather File Rain Indicators
  ,                                       !- Use Weather File Snow Indicators
  ;                                       !- Number of Times Runperiod to be Repeated

OS:PerformancePrecisionTradeoffs,
  {b9b2886b-f3dc-4bdf-9029-f73bfab3a62f}, !- Handle
  ,                                       !- Use Coil Direct Solutions
  CarrollMRT;                             !- Zone Radiant Exchange Algorithm

OS:WeatherFile,
  {50f0a373-63b4-4dba-8b18-c71510375a60}, !- Handle
  Buffalo Niagara Intl Ap,                !- City
  NY,                                     !- State Province Region
  USA,                                    !- Country
  TMY3,                                   !- Data Source
  725280,                                 !- WMO Number
  42.93,                                  !- Latitude {deg}
  -78.73,                                 !- Longitude {deg}
  -5,                                     !- Time Zone {hr}
  215,                                    !- Elevation {m}
  /Users/nmoore/github/urbanopt-example-geojson-project/example_project/weather/USA_NY_Buffalo-Greater.Buffalo.Intl.AP.725280_TMY3.epw, !- Url
  6B50E0FF,                               !- Checksum
  ,                                       !- Start Date Actual Year
  Sunday;                                 !- Start Day of Week

OS:YearDescription,
  {2ba6344b-07db-4332-9b2d-f342013a18a8}, !- Handle
  2007,                                   !- Calendar Year
  ,                                       !- Day of Week for Start Day
  ;                                       !- Is Leap Year

OS:Site,
  {42bcc93a-ce00-4a90-a81c-abc647249481}, !- Handle
  Buffalo Niagara Intl Ap_NY,             !- Name
  42.93,                                  !- Latitude {deg}
  -78.73,                                 !- Longitude {deg}
  -5,                                     !- Time Zone {hr}
  215,                                    !- Elevation {m}
  Suburbs,                                !- Terrain
  Yes;                                    !- Keep Site Location Information

OS:RunPeriodControl:DaylightSavingTime,
  {30c36d91-98ae-4844-bdb5-2b6912bb438c}, !- Handle
  Mar 12,                                 !- Start Date
  Nov 5;                                  !- End Date

OS:Site:GroundTemperature:Shallow,
  {24695354-a52d-449d-a8b6-cf9c30ab2fa0}, !- Handle
  4.30207395723828,                       !- January Surface Ground Temperature {C}
  2.29327249652502,                       !- February Surface Ground Temperature {C}
  2.13240047156047,                       !- March Surface Ground Temperature {C}
  3.08567940719286,                       !- April Surface Ground Temperature {C}
  6.91256312497526,                       !- May Surface Ground Temperature {C}
  10.7216195949507,                       !- June Surface Ground Temperature {C}
  14.0238679822574,                       !- July Surface Ground Temperature {C}
  16.1157611184724,                       !- August Surface Ground Temperature {C}
  16.2934789303462,                       !- September Surface Ground Temperature {C}
  14.5920754632847,                       !- October Surface Ground Temperature {C}
  11.374036348653,                        !- November Surface Ground Temperature {C}
  7.68182621661674;                       !- December Surface Ground Temperature {C}

OS:ThermalZone,
  {b2680675-3f75-40eb-ac85-518fe65d6cd3}, !- Handle
  conditioned space,                      !- Name
  1,                                      !- Multiplier
  ,                                       !- Ceiling Height {m}
  692.06373070848,                        !- Volume {m3}
  ,                                       !- Floor Area {m2}
  ,                                       !- Zone Inside Convection Algorithm
  ,                                       !- Zone Outside Convection Algorithm
  ,                                       !- Zone Conditioning Equipment List Name
  {a5263af1-ad77-4971-ba32-6079fed4704a}, !- Zone Air Inlet Port List
  {2fc881b1-1c00-433c-aad7-ccd591789b28}, !- Zone Air Exhaust Port List
  {95e50041-b654-4f3c-ab69-aef71adabf45}, !- Zone Air Node Name
  {75c3826c-a268-4ca8-bff6-e40bdcedb39c}, !- Zone Return Air Port List
  ,                                       !- Primary Daylighting Control Name
  ,                                       !- Fraction of Zone Controlled by Primary Daylighting Control
  ,                                       !- Secondary Daylighting Control Name
  ,                                       !- Fraction of Zone Controlled by Secondary Daylighting Control
  ,                                       !- Illuminance Map Name
  ,                                       !- Group Rendering Name
  {f536426a-3a88-4337-89cf-d2084f371fe5}, !- Thermostat Name
  No;                                     !- Use Ideal Air Loads

OS:Node,
  {8b26eb7e-3200-4632-b320-6f27264dd614}, !- Handle
  Node 1,                                 !- Name
  {95e50041-b654-4f3c-ab69-aef71adabf45}, !- Inlet Port
  ;                                       !- Outlet Port

OS:Connection,
  {95e50041-b654-4f3c-ab69-aef71adabf45}, !- Handle
  {b2680675-3f75-40eb-ac85-518fe65d6cd3}, !- Source Object
  11,                                     !- Outlet Port
  {8b26eb7e-3200-4632-b320-6f27264dd614}, !- Target Object
  2;                                      !- Inlet Port

OS:PortList,
  {a5263af1-ad77-4971-ba32-6079fed4704a}, !- Handle
  {b2680675-3f75-40eb-ac85-518fe65d6cd3}, !- HVAC Component
  {01dfdc95-c33d-467c-af9d-4e3f0f34e700}; !- Port 1

OS:PortList,
  {2fc881b1-1c00-433c-aad7-ccd591789b28}, !- Handle
  {b2680675-3f75-40eb-ac85-518fe65d6cd3}; !- HVAC Component

OS:PortList,
  {75c3826c-a268-4ca8-bff6-e40bdcedb39c}, !- Handle
  {b2680675-3f75-40eb-ac85-518fe65d6cd3}, !- HVAC Component
  {d1603608-5b11-4c6e-9357-345b4200059d}; !- Port 1

OS:Sizing:Zone,
  {57b93ce5-3f3f-4a80-8b38-c4960eed4300}, !- Handle
  {b2680675-3f75-40eb-ac85-518fe65d6cd3}, !- Zone or ZoneList Name
  SupplyAirTemperature,                   !- Zone Cooling Design Supply Air Temperature Input Method
  14,                                     !- Zone Cooling Design Supply Air Temperature {C}
  11.11,                                  !- Zone Cooling Design Supply Air Temperature Difference {deltaC}
  SupplyAirTemperature,                   !- Zone Heating Design Supply Air Temperature Input Method
  40,                                     !- Zone Heating Design Supply Air Temperature {C}
  11.11,                                  !- Zone Heating Design Supply Air Temperature Difference {deltaC}
  0.0085,                                 !- Zone Cooling Design Supply Air Humidity Ratio {kg-H2O/kg-air}
  0.008,                                  !- Zone Heating Design Supply Air Humidity Ratio {kg-H2O/kg-air}
  ,                                       !- Zone Heating Sizing Factor
  ,                                       !- Zone Cooling Sizing Factor
  DesignDay,                              !- Cooling Design Air Flow Method
  ,                                       !- Cooling Design Air Flow Rate {m3/s}
  ,                                       !- Cooling Minimum Air Flow per Zone Floor Area {m3/s-m2}
  ,                                       !- Cooling Minimum Air Flow {m3/s}
  ,                                       !- Cooling Minimum Air Flow Fraction
  DesignDay,                              !- Heating Design Air Flow Method
  ,                                       !- Heating Design Air Flow Rate {m3/s}
  ,                                       !- Heating Maximum Air Flow per Zone Floor Area {m3/s-m2}
  ,                                       !- Heating Maximum Air Flow {m3/s}
  ,                                       !- Heating Maximum Air Flow Fraction
  No,                                     !- Account for Dedicated Outdoor Air System
  NeutralSupplyAir,                       !- Dedicated Outdoor Air System Control Strategy
  autosize,                               !- Dedicated Outdoor Air Low Setpoint Temperature for Design {C}
  autosize,                               !- Dedicated Outdoor Air High Setpoint Temperature for Design {C}
  Sensible Load Only No Latent Load,      !- Zone Load Sizing Method
  HumidityRatioDifference,                !- Zone Latent Cooling Design Supply Air Humidity Ratio Input Method
  ,                                       !- Zone Dehumidification Design Supply Air Humidity Ratio {kgWater/kgDryAir}
  0.005,                                  !- Zone Cooling Design Supply Air Humidity Ratio Difference {kgWater/kgDryAir}
  HumidityRatioDifference,                !- Zone Latent Heating Design Supply Air Humidity Ratio Input Method
  ,                                       !- Zone Humidification Design Supply Air Humidity Ratio {kgWater/kgDryAir}
  0.005,                                  !- Zone Humidification Design Supply Air Humidity Ratio Difference {kgWater/kgDryAir}
  ,                                       !- Zone Humidistat Dehumidification Set Point Schedule Name
  ,                                       !- Zone Humidistat Humidification Set Point Schedule Name
  ,                                       !- Design Zone Air Distribution Effectiveness in Cooling Mode
  ,                                       !- Design Zone Air Distribution Effectiveness in Heating Mode
  ,                                       !- Design Zone Secondary Recirculation Fraction {dimensionless}
  ,                                       !- Design Minimum Zone Ventilation Efficiency {dimensionless}
  Coincident;                             !- Sizing Option

OS:ZoneHVAC:EquipmentList,
  {cbc7e398-0ec1-45af-9e43-655a257b92d9}, !- Handle
  Zone HVAC Equipment List 1,             !- Name
  {b2680675-3f75-40eb-ac85-518fe65d6cd3}, !- Thermal Zone
  ,                                       !- Load Distribution Scheme
  {6e1915d3-e8a8-47b6-a47c-be22ace69053}, !- Zone Equipment 1
  1,                                      !- Zone Equipment Cooling Sequence 1
  1,                                      !- Zone Equipment Heating or No-Load Sequence 1
  {26faf08d-90a6-4366-8908-521b7484a9cc}, !- Zone Equipment Sequential Cooling Fraction Schedule Name 1
  {4155fd65-70d1-48ef-9473-f551ac6d25ac}, !- Zone Equipment Sequential Heating Fraction Schedule Name 1
  {eb34e8d2-0b59-41ae-8fe3-e66e5b3e666a}, !- Zone Equipment 2
  2,                                      !- Zone Equipment Cooling Sequence 2
  2,                                      !- Zone Equipment Heating or No-Load Sequence 2
  {f7c646ff-ff4b-4983-948b-c45b822791ec}, !- Zone Equipment Sequential Cooling Fraction Schedule Name 2
  {e0899d5b-fb90-46b2-af39-9ed73a1f2496}; !- Zone Equipment Sequential Heating Fraction Schedule Name 2

OS:AdditionalProperties,
  {67b598d5-51ae-49c6-92b5-cfa666a44a85}, !- Handle
  {b2680675-3f75-40eb-ac85-518fe65d6cd3}, !- Object Name
  ObjectType,                             !- Feature Name 1
  String,                                 !- Feature Data Type 1
  conditioned space;                      !- Feature Value 1

OS:Space,
  {5affb9f5-3b23-4ee0-814e-51b53d7a4d76}, !- Handle
  conditioned space 1,                    !- Name
  ,                                       !- Space Type Name
  ,                                       !- Default Construction Set Name
  ,                                       !- Default Schedule Set Name
  ,                                       !- Direction of Relative North {deg}
  ,                                       !- X Origin {m}
  ,                                       !- Y Origin {m}
  ,                                       !- Z Origin {m}
  ,                                       !- Building Story Name
  {b2680675-3f75-40eb-ac85-518fe65d6cd3}, !- Thermal Zone Name
  ,                                       !- Part of Total Floor Area
  ,                                       !- Design Specification Outdoor Air Object Name
  ,                                       !- Building Unit Name
  692.06373070848;                        !- Volume {m3}

OS:Schedule:Ruleset,
  {73f5231b-6394-4919-8cbc-232344ea1da4}, !- Handle
  heating setpoint,                       !- Name
  {92e20cf4-db34-4a80-b2aa-ef2665cea12e}, !- Schedule Type Limits Name
  {3be02153-cb8f-44ac-8618-a6b42f7485a1}; !- Default Day Schedule Name

OS:Schedule:Day,
  {3be02153-cb8f-44ac-8618-a6b42f7485a1}, !- Handle
  heating setpoint default day,           !- Name
  {92e20cf4-db34-4a80-b2aa-ef2665cea12e}, !- Schedule Type Limits Name
  ,                                       !- Interpolate to Timestep
  24,                                     !- Hour 1
  0,                                      !- Minute 1
  0;                                      !- Value Until Time 1

OS:Schedule:Rule,
  {323fae61-da8e-4c7c-8135-74cda6607062}, !- Handle
  heating setpoint allday rule,           !- Name
  {73f5231b-6394-4919-8cbc-232344ea1da4}, !- Schedule Ruleset Name
  0,                                      !- Rule Order
  {b2121008-ef31-407b-b7ab-99f5529526b1}, !- Day Schedule Name
  Yes,                                    !- Apply Sunday
  Yes,                                    !- Apply Monday
  Yes,                                    !- Apply Tuesday
  Yes,                                    !- Apply Wednesday
  Yes,                                    !- Apply Thursday
  Yes,                                    !- Apply Friday
  Yes,                                    !- Apply Saturday
  DateRange,                              !- Date Specification Type
  1,                                      !- Start Month
  1,                                      !- Start Day
  12,                                     !- End Month
  31;                                     !- End Day

OS:Schedule:Day,
  {b2121008-ef31-407b-b7ab-99f5529526b1}, !- Handle
  heating setpoint day,                   !- Name
  {92e20cf4-db34-4a80-b2aa-ef2665cea12e}, !- Schedule Type Limits Name
  ,                                       !- Interpolate to Timestep
  24,                                     !- Hour 1
  0,                                      !- Minute 1
  20;                                     !- Value Until Time 1

OS:Schedule:Ruleset,
  {95cf0d23-b6a5-433f-b5d4-f789c52c6ca2}, !- Handle
  cooling setpoint,                       !- Name
  {92e20cf4-db34-4a80-b2aa-ef2665cea12e}, !- Schedule Type Limits Name
  {15fba606-497a-4116-8180-dfe2cfbbb228}; !- Default Day Schedule Name

OS:Schedule:Day,
  {15fba606-497a-4116-8180-dfe2cfbbb228}, !- Handle
  cooling setpoint default day,           !- Name
  {92e20cf4-db34-4a80-b2aa-ef2665cea12e}, !- Schedule Type Limits Name
  ,                                       !- Interpolate to Timestep
  24,                                     !- Hour 1
  0,                                      !- Minute 1
  0;                                      !- Value Until Time 1

OS:Schedule:Rule,
  {5c339329-6fcc-4c01-8b6f-df92cddecad7}, !- Handle
  cooling setpoint allday rule,           !- Name
  {95cf0d23-b6a5-433f-b5d4-f789c52c6ca2}, !- Schedule Ruleset Name
  0,                                      !- Rule Order
  {fcbbf665-55cd-44d2-85f4-9c435a91dd83}, !- Day Schedule Name
  Yes,                                    !- Apply Sunday
  Yes,                                    !- Apply Monday
  Yes,                                    !- Apply Tuesday
  Yes,                                    !- Apply Wednesday
  Yes,                                    !- Apply Thursday
  Yes,                                    !- Apply Friday
  Yes,                                    !- Apply Saturday
  DateRange,                              !- Date Specification Type
  1,                                      !- Start Month
  1,                                      !- Start Day
  12,                                     !- End Month
  31;                                     !- End Day

OS:Schedule:Day,
  {fcbbf665-55cd-44d2-85f4-9c435a91dd83}, !- Handle
  cooling setpoint day,                   !- Name
  {92e20cf4-db34-4a80-b2aa-ef2665cea12e}, !- Schedule Type Limits Name
  ,                                       !- Interpolate to Timestep
  24,                                     !- Hour 1
  0,                                      !- Minute 1
  25.5555555555556;                       !- Value Until Time 1

OS:ThermostatSetpoint:DualSetpoint,
  {f536426a-3a88-4337-89cf-d2084f371fe5}, !- Handle
  conditioned space temperature setpoint, !- Name
  {73f5231b-6394-4919-8cbc-232344ea1da4}, !- Heating Setpoint Temperature Schedule Name
  {95cf0d23-b6a5-433f-b5d4-f789c52c6ca2}, !- Cooling Setpoint Temperature Schedule Name
  0;                                      !- Temperature Difference Between Cutout And Setpoint {deltaC}

OS:ScheduleTypeLimits,
  {92e20cf4-db34-4a80-b2aa-ef2665cea12e}, !- Handle
  Temperature,                            !- Name
  ,                                       !- Lower Limit Value
  ,                                       !- Upper Limit Value
  Continuous,                             !- Numeric Type
  Temperature;                            !- Unit Type

OS:Surface,
  {9fb56953-e37f-4dea-bc4b-9c690595c52d}, !- Handle
  Roof1,                                  !- Name
  RoofCeiling,                            !- Surface Type
  {4595b49c-b808-49d6-b659-6c4c401ed1de}, !- Construction Name
  {be80a0e0-b73c-449c-99fc-48c766a56aed}, !- Space Name
  Outdoors,                               !- Outside Boundary Condition
  ,                                       !- Outside Boundary Condition Object
  SunExposed,                             !- Sun Exposure
  WindExposed,                            !- Wind Exposure
  ,                                       !- View Factor to Ground
  ,                                       !- Number of Vertices
  -26.9347048849634, 58.0557891618865, 2.4384, !- X,Y,Z Vertex 1 {m}
  -26.9347048849634, 46.7895631136661, 8.0715130241102, !- X,Y,Z Vertex 2 {m}
  -14.3386812381136, 46.7895631136661, 8.0715130241102, !- X,Y,Z Vertex 3 {m}
  -14.3386812381136, 58.0557891618865, 2.4384; !- X,Y,Z Vertex 4 {m}

OS:AdditionalProperties,
  {895a6696-0ffb-4fb4-9b5b-da9e8ad27402}, !- Handle
  {9fb56953-e37f-4dea-bc4b-9c690595c52d}, !- Object Name
  Length,                                 !- Feature Name 1
  Double,                                 !- Feature Data Type 1
  41.325536899113608,                     !- Feature Value 1
  Width,                                  !- Feature Name 2
  Double,                                 !- Feature Data Type 2
  41.325536899113601,                     !- Feature Value 2
  Azimuth,                                !- Feature Name 3
  Integer,                                !- Feature Data Type 3
  0,                                      !- Feature Value 3
  Tilt,                                   !- Feature Name 4
  Double,                                 !- Feature Data Type 4
  0.5,                                    !- Feature Value 4
  SurfaceType,                            !- Feature Name 5
  String,                                 !- Feature Data Type 5
  Roof;                                   !- Feature Value 5

OS:ThermalZone,
  {82076258-267a-4449-9c79-1a866d7ac8cf}, !- Handle
  attic - vented,                         !- Name
  1,                                      !- Multiplier
  ,                                       !- Ceiling Height {m}
  356.389957095237,                       !- Volume {m3}
  ,                                       !- Floor Area {m2}
  ,                                       !- Zone Inside Convection Algorithm
  ,                                       !- Zone Outside Convection Algorithm
  ,                                       !- Zone Conditioning Equipment List Name
  {c17f6cc1-3794-4491-b125-3852d89152c9}, !- Zone Air Inlet Port List
  {ca0182d5-43bd-41af-bb20-f63b90f41748}, !- Zone Air Exhaust Port List
  {bc15bf6c-f069-484a-b405-ecf910c8b98a}, !- Zone Air Node Name
  {5ee12928-4857-4fce-a13c-ef0b87e6dd27}, !- Zone Return Air Port List
  ,                                       !- Primary Daylighting Control Name
  ,                                       !- Fraction of Zone Controlled by Primary Daylighting Control
  ,                                       !- Secondary Daylighting Control Name
  ,                                       !- Fraction of Zone Controlled by Secondary Daylighting Control
  ,                                       !- Illuminance Map Name
  ,                                       !- Group Rendering Name
  ,                                       !- Thermostat Name
  No;                                     !- Use Ideal Air Loads

OS:Node,
  {60368efd-e4f1-43f6-8bc4-dcafa8663658}, !- Handle
  Node 2,                                 !- Name
  {bc15bf6c-f069-484a-b405-ecf910c8b98a}, !- Inlet Port
  ;                                       !- Outlet Port

OS:Connection,
  {bc15bf6c-f069-484a-b405-ecf910c8b98a}, !- Handle
  {82076258-267a-4449-9c79-1a866d7ac8cf}, !- Source Object
  11,                                     !- Outlet Port
  {60368efd-e4f1-43f6-8bc4-dcafa8663658}, !- Target Object
  2;                                      !- Inlet Port

OS:PortList,
  {c17f6cc1-3794-4491-b125-3852d89152c9}, !- Handle
  {82076258-267a-4449-9c79-1a866d7ac8cf}; !- HVAC Component

OS:PortList,
  {ca0182d5-43bd-41af-bb20-f63b90f41748}, !- Handle
  {82076258-267a-4449-9c79-1a866d7ac8cf}; !- HVAC Component

OS:PortList,
  {5ee12928-4857-4fce-a13c-ef0b87e6dd27}, !- Handle
  {82076258-267a-4449-9c79-1a866d7ac8cf}; !- HVAC Component

OS:Sizing:Zone,
  {a2542630-e83e-4154-a101-ae151284c061}, !- Handle
  {82076258-267a-4449-9c79-1a866d7ac8cf}, !- Zone or ZoneList Name
  SupplyAirTemperature,                   !- Zone Cooling Design Supply Air Temperature Input Method
  14,                                     !- Zone Cooling Design Supply Air Temperature {C}
  11.11,                                  !- Zone Cooling Design Supply Air Temperature Difference {deltaC}
  SupplyAirTemperature,                   !- Zone Heating Design Supply Air Temperature Input Method
  40,                                     !- Zone Heating Design Supply Air Temperature {C}
  11.11,                                  !- Zone Heating Design Supply Air Temperature Difference {deltaC}
  0.0085,                                 !- Zone Cooling Design Supply Air Humidity Ratio {kg-H2O/kg-air}
  0.008,                                  !- Zone Heating Design Supply Air Humidity Ratio {kg-H2O/kg-air}
  ,                                       !- Zone Heating Sizing Factor
  ,                                       !- Zone Cooling Sizing Factor
  DesignDay,                              !- Cooling Design Air Flow Method
  ,                                       !- Cooling Design Air Flow Rate {m3/s}
  ,                                       !- Cooling Minimum Air Flow per Zone Floor Area {m3/s-m2}
  ,                                       !- Cooling Minimum Air Flow {m3/s}
  ,                                       !- Cooling Minimum Air Flow Fraction
  DesignDay,                              !- Heating Design Air Flow Method
  ,                                       !- Heating Design Air Flow Rate {m3/s}
  ,                                       !- Heating Maximum Air Flow per Zone Floor Area {m3/s-m2}
  ,                                       !- Heating Maximum Air Flow {m3/s}
  ,                                       !- Heating Maximum Air Flow Fraction
  No,                                     !- Account for Dedicated Outdoor Air System
  NeutralSupplyAir,                       !- Dedicated Outdoor Air System Control Strategy
  autosize,                               !- Dedicated Outdoor Air Low Setpoint Temperature for Design {C}
  autosize,                               !- Dedicated Outdoor Air High Setpoint Temperature for Design {C}
  Sensible Load Only No Latent Load,      !- Zone Load Sizing Method
  HumidityRatioDifference,                !- Zone Latent Cooling Design Supply Air Humidity Ratio Input Method
  ,                                       !- Zone Dehumidification Design Supply Air Humidity Ratio {kgWater/kgDryAir}
  0.005,                                  !- Zone Cooling Design Supply Air Humidity Ratio Difference {kgWater/kgDryAir}
  HumidityRatioDifference,                !- Zone Latent Heating Design Supply Air Humidity Ratio Input Method
  ,                                       !- Zone Humidification Design Supply Air Humidity Ratio {kgWater/kgDryAir}
  0.005,                                  !- Zone Humidification Design Supply Air Humidity Ratio Difference {kgWater/kgDryAir}
  ,                                       !- Zone Humidistat Dehumidification Set Point Schedule Name
  ,                                       !- Zone Humidistat Humidification Set Point Schedule Name
  ,                                       !- Design Zone Air Distribution Effectiveness in Cooling Mode
  ,                                       !- Design Zone Air Distribution Effectiveness in Heating Mode
  ,                                       !- Design Zone Secondary Recirculation Fraction {dimensionless}
  ,                                       !- Design Minimum Zone Ventilation Efficiency {dimensionless}
  Coincident;                             !- Sizing Option

OS:ZoneHVAC:EquipmentList,
  {b53824f5-7846-4f1b-be8b-d158affff25b}, !- Handle
  Zone HVAC Equipment List 2,             !- Name
  {82076258-267a-4449-9c79-1a866d7ac8cf}; !- Thermal Zone

OS:AdditionalProperties,
  {7f4d20cc-c8f7-4413-aa31-094873949a08}, !- Handle
  {82076258-267a-4449-9c79-1a866d7ac8cf}, !- Object Name
  ObjectType,                             !- Feature Name 1
  String,                                 !- Feature Data Type 1
  attic - vented;                         !- Feature Value 1

OS:Space,
  {be80a0e0-b73c-449c-99fc-48c766a56aed}, !- Handle
  attic - vented 1,                       !- Name
  ,                                       !- Space Type Name
  ,                                       !- Default Construction Set Name
  ,                                       !- Default Schedule Set Name
  ,                                       !- Direction of Relative North {deg}
  ,                                       !- X Origin {m}
  ,                                       !- Y Origin {m}
  ,                                       !- Z Origin {m}
  ,                                       !- Building Story Name
  {82076258-267a-4449-9c79-1a866d7ac8cf}, !- Thermal Zone Name
  ,                                       !- Part of Total Floor Area
  ,                                       !- Design Specification Outdoor Air Object Name
  ,                                       !- Building Unit Name
  356.389957095237;                       !- Volume {m3}

OS:Material,
  {63c542d4-ec18-4dda-baae-4639ab10b6a1}, !- Handle
  asphalt or fiberglass shingles,         !- Name