
OS:Version,
  {87210451-d517-4096-a1f3-7868cba13bf1}, !- Handle
  3.10.0;                                 !- Version Identifier

OS:SimulationControl,
  {34b27223-9041-4f30-a16b-606b875f66f2}, !- Handle
  ,                                       !- Do Zone Sizing Calculation
  ,                                       !- Do System Sizing Calculation
  ,                                       !- Do Plant Sizing Calculation
  No;                                     !- Run Simulation for Sizing Periods

OS:Timestep,
  {cc45dc63-6f3c-4660-98e0-e0657935c1d9}, !- Handle
  1;                                      !- Number of Timesteps per Hour

OS:ShadowCalculation,
  {368be0d3-3c4b-49cd-a911-483913853859}, !- Handle
  PolygonClipping,                        !- Shading Calculation Method
  ,                                       !- Shading Calculation Update Frequency Method
  20,                                     !- Shading Calculation Update Frequency
  200,                                    !- Maximum Figures in Shadow Overlap Calculations
  ,                                       !- Polygon Clipping Algorithm
  512,                                    !- Pixel Counting Resolution
  ,                                       !- Sky Diffuse Modeling Algorithm
  No,                                     !- Output External Shading Calculation Results
  No,                                     !- Disable Self-Shading Within Shading Zone Groups
  No;                                     !- Disable Self-Shading From Shading Zone Groups to Other Zones

OS:SurfaceConvectionAlgorithm:Outside,
  {17b3e31c-67fc-44a8-ba5f-0ecbea5ded41}, !- Handle
  DOE-2;                                  !- Algorithm

OS:SurfaceConvectionAlgorithm:Inside,
  {1b2fd41b-c465-4992-b609-75f33e93bd51}, !- Handle
  TARP;                                   !- Algorithm

OS:ZoneCapacitanceMultiplier:ResearchSpecial,
  {f8c8b46f-19d3-4108-bdd7-6261ff741bec}, !- Handle
  7,                                      !- Temperature Capacity Multiplier
  15,                                     !- Humidity Capacity Multiplier
  ;                                       !- Carbon Dioxide Capacity Multiplier

OS:ConvergenceLimits,
  {e025e369-b142-49a4-9966-f19c49157f05}, !- Handle
  0;                                      !- Minimum System Timestep {minutes}

OS:RunPeriod,
  {c142e643-ae11-4721-8d9d-717232ae2416}, !- Handle
  Run Period 1,                           !- Name
  1,                                      !- Begin Month
  1,                                      !- Begin Day of Month
  12,                                     !- End Month
  31,                                     !- End Day of Month
  ,                                       !- Use Weather File Holidays and Special Days
  ,                                       !- Use Weather File Daylight Saving Period
  ,                                       !- Apply Weekend Holiday Rule
  ,                                       !- Use Weather File Rain Indicators
  ,                                       !- Use Weather File Snow Indicators
  ;                                       !- Number of Times Runperiod to be Repeated

OS:PerformancePrecisionTradeoffs,
  {5da044ab-890d-4af0-bee3-37da5a8293c9}, !- Handle
  ,                                       !- Use Coil Direct Solutions
  CarrollMRT;                             !- Zone Radiant Exchange Algorithm

OS:WeatherFile,
  {c6f3c64f-e098-43b5-8202-8f45b4c550df}, !- Handle
  Buffalo Niagara Intl Ap,                !- City
  NY,                                     !- State Province Region
  USA,                                    !- Country
  TMY3,                                   !- Data Source
  725280,                                 !- WMO Number
  42.93,                                  !- Latitude {deg}
  -78.73,                                 !- Longitude {deg}
  -5,                                     !- Time Zone {hr}
  215,                                    !- Elevation {m}
  /Users/nmoore/github/urbanopt-example-geojson-project/example_project/weather/USA_NY_Buffalo-Greater.Buffalo.Intl.AP.725280_TMY3.epw, !- Url
  6B50E0FF,                               !- Checksum
  ,                                       !- Start Date Actual Year
  Sunday;                                 !- Start Day of Week

OS:YearDescription,
  {a1c4365c-86bf-4beb-97ed-534f65233497}, !- Handle
  2007,                                   !- Calendar Year
  ,                                       !- Day of Week for Start Day
  ;                                       !- Is Leap Year

OS:Site,
  {5e070572-d065-4e6c-a825-e911ea43b8cf}, !- Handle
  Buffalo Niagara Intl Ap_NY,             !- Name
  42.93,                                  !- Latitude {deg}
  -78.73,                                 !- Longitude {deg}
  -5,                                     !- Time Zone {hr}
  215,                                    !- Elevation {m}
  Suburbs,                                !- Terrain
  Yes;                                    !- Keep Site Location Information

OS:RunPeriodControl:DaylightSavingTime,
  {438cb765-0031-4058-870a-3f6c6e3420a1}, !- Handle
  Mar 12,                                 !- Start Date
  Nov 5;                                  !- End Date

OS:Site:GroundTemperature:Shallow,
  {5b0c28c2-2869-44f5-aea9-4b4ffaeaf3f8}, !- Handle
  4.30207395723828,                       !- January Surface Ground Temperature {C}
  2.29327249652502,                       !- February Surface Ground Temperature {C}
  2.13240047156047,                       !- March Surface Ground Temperature {C}
  3.08567940719286,                       !- April Surface Ground Temperature {C}
  6.91256312497526,                       !- May Surface Ground Temperature {C}
  10.7216195949507,                       !- June Surface Ground Temperature {C}
  14.0238679822574,                       !- July Surface Ground Temperature {C}
  16.1157611184724,                       !- August Surface Ground Temperature {C}
  16.2934789303462,                       !- September Surface Ground Temperature {C}
  14.5920754632847,                       !- October Surface Ground Temperature {C}
  11.374036348653,                        !- November Surface Ground Temperature {C}
  7.68182621661674;                       !- December Surface Ground Temperature {C}

OS:ThermalZone,
  {25faff35-13d5-4931-85b4-2d3c9a70571f}, !- Handle
  conditioned space,                      !- Name
  1,                                      !- Multiplier
  ,                                       !- Ceiling Height {m}
  692.06373070848,                        !- Volume {m3}
  ,                                       !- Floor Area {m2}
  ,                                       !- Zone Inside Convection Algorithm
  ,                                       !- Zone Outside Convection Algorithm
  ,                                       !- Zone Conditioning Equipment List Name
  {b40a5d1b-02e8-48b8-9fe3-50119d01e013}, !- Zone Air Inlet Port List
  {493807d6-0f3c-4719-840b-9790cfa09f4a}, !- Zone Air Exhaust Port List
  {26b37bb5-3435-4d7d-86df-c8b52c39e238}, !- Zone Air Node Name
  {aaff35af-daf1-449e-9452-46fc67f3ca7d}, !- Zone Return Air Port List
  ,                                       !- Primary Daylighting Control Name
  ,                                       !- Fraction of Zone Controlled by Primary Daylighting Control
  ,                                       !- Secondary Daylighting Control Name
  ,                                       !- Fraction of Zone Controlled by Secondary Daylighting Control
  ,                                       !- Illuminance Map Name
  ,                                       !- Group Rendering Name
  {251affe9-ae1d-4ce3-9446-ae6a1700caf2}, !- Thermostat Name
  No;                                     !- Use Ideal Air Loads

OS:Node,
  {3bd0e0f6-ef0e-43f8-b87f-f8ee25810474}, !- Handle
  Node 1,                                 !- Name
  {26b37bb5-3435-4d7d-86df-c8b52c39e238}, !- Inlet Port
  ;                                       !- Outlet Port

OS:Connection,
  {26b37bb5-3435-4d7d-86df-c8b52c39e238}, !- Handle
  {25faff35-13d5-4931-85b4-2d3c9a70571f}, !- Source Object
  11,                                     !- Outlet Port
  {3bd0e0f6-ef0e-43f8-b87f-f8ee25810474}, !- Target Object
  2;                                      !- Inlet Port

OS:PortList,
  {b40a5d1b-02e8-48b8-9fe3-50119d01e013}, !- Handle
  {25faff35-13d5-4931-85b4-2d3c9a70571f}, !- HVAC Component
  {4ac5ee42-d1cf-4afa-b196-c77ef3135d22}; !- Port 1

OS:PortList,
  {493807d6-0f3c-4719-840b-9790cfa09f4a}, !- Handle
  {25faff35-13d5-4931-85b4-2d3c9a70571f}; !- HVAC Component

OS:PortList,
  {aaff35af-daf1-449e-9452-46fc67f3ca7d}, !- Handle
  {25faff35-13d5-4931-85b4-2d3c9a70571f}, !- HVAC Component
  {4e82e7e3-0603-4ddc-b271-022e40c35f58}; !- Port 1

OS:Sizing:Zone,
  {3daa2932-38ba-43c3-9685-60ef9c44bcb5}, !- Handle
  {25faff35-13d5-4931-85b4-2d3c9a70571f}, !- Zone or ZoneList Name
  SupplyAirTemperature,                   !- Zone Cooling Design Supply Air Temperature Input Method
  14,                                     !- Zone Cooling Design Supply Air Temperature {C}
  11.11,                                  !- Zone Cooling Design Supply Air Temperature Difference {deltaC}
  SupplyAirTemperature,                   !- Zone Heating Design Supply Air Temperature Input Method
  40,                                     !- Zone Heating Design Supply Air Temperature {C}
  11.11,                                  !- Zone Heating Design Supply Air Temperature Difference {deltaC}
  0.0085,                                 !- Zone Cooling Design Supply Air Humidity Ratio {kg-H2O/kg-air}
  0.008,                                  !- Zone Heating Design Supply Air Humidity Ratio {kg-H2O/kg-air}
  ,                                       !- Zone Heating Sizing Factor
  ,                                       !- Zone Cooling Sizing Factor
  DesignDay,                              !- Cooling Design Air Flow Method
  ,                                       !- Cooling Design Air Flow Rate {m3/s}
  ,                                       !- Cooling Minimum Air Flow per Zone Floor Area {m3/s-m2}
  ,                                       !- Cooling Minimum Air Flow {m3/s}
  ,                                       !- Cooling Minimum Air Flow Fraction
  DesignDay,                              !- Heating Design Air Flow Method
  ,                                       !- Heating Design Air Flow Rate {m3/s}
  ,                                       !- Heating Maximum Air Flow per Zone Floor Area {m3/s-m2}
  ,                                       !- Heating Maximum Air Flow {m3/s}
  ,                                       !- Heating Maximum Air Flow Fraction
  No,                                     !- Account for Dedicated Outdoor Air System
  NeutralSupplyAir,                       !- Dedicated Outdoor Air System Control Strategy
  autosize,                               !- Dedicated Outdoor Air Low Setpoint Temperature for Design {C}
  autosize,                               !- Dedicated Outdoor Air High Setpoint Temperature for Design {C}
  Sensible Load Only No Latent Load,      !- Zone Load Sizing Method
  HumidityRatioDifference,                !- Zone Latent Cooling Design Supply Air Humidity Ratio Input Method
  ,                                       !- Zone Dehumidification Design Supply Air Humidity Ratio {kgWater/kgDryAir}
  0.005,                                  !- Zone Cooling Design Supply Air Humidity Ratio Difference {kgWater/kgDryAir}
  HumidityRatioDifference,                !- Zone Latent Heating Design Supply Air Humidity Ratio Input Method
  ,                                       !- Zone Humidification Design Supply Air Humidity Ratio {kgWater/kgDryAir}
  0.005,                                  !- Zone Humidification Design Supply Air Humidity Ratio Difference {kgWater/kgDryAir}
  ,                                       !- Zone Humidistat Dehumidification Set Point Schedule Name
  ,                                       !- Zone Humidistat Humidification Set Point Schedule Name
  ,                                       !- Design Zone Air Distribution Effectiveness in Cooling Mode
  ,                                       !- Design Zone Air Distribution Effectiveness in Heating Mode
  ,                                       !- Design Zone Secondary Recirculation Fraction {dimensionless}
  ,                                       !- Design Minimum Zone Ventilation Efficiency {dimensionless}
  Coincident;                             !- Sizing Option

OS:ZoneHVAC:EquipmentList,
  {d6e695e2-0ad6-4ecb-b2e8-6c8b1d7142ec}, !- Handle
  Zone HVAC Equipment List 1,             !- Name
  {25faff35-13d5-4931-85b4-2d3c9a70571f}, !- Thermal Zone
  ,                                       !- Load Distribution Scheme
  {71a52884-7cdc-4809-b2a5-73b28f73fe6f}, !- Zone Equipment 1
  1,                                      !- Zone Equipment Cooling Sequence 1
  1,                                      !- Zone Equipment Heating or No-Load Sequence 1
  {5028f56f-fd1d-4397-94ba-096e6a9fc69e}, !- Zone Equipment Sequential Cooling Fraction Schedule Name 1
  {b7d63b3f-9411-4576-a33c-6a89bdcf9b45}, !- Zone Equipment Sequential Heating Fraction Schedule Name 1
  {4907bb43-375c-4274-9738-bdab91ae2c93}, !- Zone Equipment 2
  2,                                      !- Zone Equipment Cooling Sequence 2
  2,                                      !- Zone Equipment Heating or No-Load Sequence 2
  {d497469c-f902-4da1-aa58-2c9101879950}, !- Zone Equipment Sequential Cooling Fraction Schedule Name 2
  {ec61069c-610e-4f21-8766-05b382835896}; !- Zone Equipment Sequential Heating Fraction Schedule Name 2

OS:AdditionalProperties,
  {d4ba99c6-71c6-4390-96ec-5f13425a3e9e}, !- Handle
  {25faff35-13d5-4931-85b4-2d3c9a70571f}, !- Object Name
  ObjectType,                             !- Feature Name 1
  String,                                 !- Feature Data Type 1
  conditioned space;                      !- Feature Value 1

OS:Space,
  {93adff83-aa82-4176-bde0-d40207aa36c7}, !- Handle
  conditioned space 1,                    !- Name
  ,                                       !- Space Type Name
  ,                                       !- Default Construction Set Name
  ,                                       !- Default Schedule Set Name
  ,                                       !- Direction of Relative North {deg}
  ,                                       !- X Origin {m}
  ,                                       !- Y Origin {m}
  ,                                       !- Z Origin {m}
  ,                                       !- Building Story Name
  {25faff35-13d5-4931-85b4-2d3c9a70571f}, !- Thermal Zone Name
  ,                                       !- Part of Total Floor Area
  ,                                       !- Design Specification Outdoor Air Object Name
  ,                                       !- Building Unit Name
  692.06373070848;                        !- Volume {m3}

OS:Schedule:Ruleset,
  {8c9539bc-d447-4239-ac58-a58d156897a2}, !- Handle
  heating setpoint,                       !- Name
  {1d2e4625-845f-49fd-8763-d6ded53b3b87}, !- Schedule Type Limits Name
  {4a5ae0c4-add7-40f2-bd14-66f6ab6b0a56}; !- Default Day Schedule Name

OS:Schedule:Day,
  {4a5ae0c4-add7-40f2-bd14-66f6ab6b0a56}, !- Handle
  heating setpoint default day,           !- Name
  {1d2e4625-845f-49fd-8763-d6ded53b3b87}, !- Schedule Type Limits Name
  ,                                       !- Interpolate to Timestep
  24,                                     !- Hour 1
  0,                                      !- Minute 1
  0;                                      !- Value Until Time 1

OS:Schedule:Rule,
  {7e90467b-b8b6-4fd9-9de4-f0bc1458a00b}, !- Handle
  heating setpoint allday rule,           !- Name
  {8c9539bc-d447-4239-ac58-a58d156897a2}, !- Schedule Ruleset Name
  0,                                      !- Rule Order
  {9701494b-1ca8-408a-9dfe-18c6bad6a108}, !- Day Schedule Name
  Yes,                                    !- Apply Sunday
  Yes,                                    !- Apply Monday
  Yes,                                    !- Apply Tuesday
  Yes,                                    !- Apply Wednesday
  Yes,                                    !- Apply Thursday
  Yes,                                    !- Apply Friday
  Yes,                                    !- Apply Saturday
  DateRange,                              !- Date Specification Type
  1,                                      !- Start Month
  1,                                      !- Start Day
  12,                                     !- End Month
  31;                                     !- End Day

OS:Schedule:Day,
  {9701494b-1ca8-408a-9dfe-18c6bad6a108}, !- Handle
  heating setpoint day,                   !- Name
  {1d2e4625-845f-49fd-8763-d6ded53b3b87}, !- Schedule Type Limits Name
  ,                                       !- Interpolate to Timestep
  24,                                     !- Hour 1
  0,                                      !- Minute 1
  20;                                     !- Value Until Time 1

OS:Schedule:Ruleset,
  {ede50aa6-daf7-4a81-ae31-691b0754ad43}, !- Handle
  cooling setpoint,                       !- Name
  {1d2e4625-845f-49fd-8763-d6ded53b3b87}, !- Schedule Type Limits Name
  {78296f04-3009-4792-9f54-553524df30dc}; !- Default Day Schedule Name

OS:Schedule:Day,
  {78296f04-3009-4792-9f54-553524df30dc}, !- Handle
  cooling setpoint default day,           !- Name
  {1d2e4625-845f-49fd-8763-d6ded53b3b87}, !- Schedule Type Limits Name
  ,                                       !- Interpolate to Timestep
  24,                                     !- Hour 1
  0,                                      !- Minute 1
  0;                                      !- Value Until Time 1

OS:Schedule:Rule,
  {828fdd48-c774-400e-919b-c9748edf90b2}, !- Handle
  cooling setpoint allday rule,           !- Name
  {ede50aa6-daf7-4a81-ae31-691b0754ad43}, !- Schedule Ruleset Name
  0,                                      !- Rule Order
  {5b0ea9f7-0987-45c8-a010-f4c58af905e3}, !- Day Schedule Name
  Yes,                                    !- Apply Sunday
  Yes,                                    !- Apply Monday
  Yes,                                    !- Apply Tuesday
  Yes,                                    !- Apply Wednesday
  Yes,                                    !- Apply Thursday
  Yes,                                    !- Apply Friday
  Yes,                                    !- Apply Saturday
  DateRange,                              !- Date Specification Type
  1,                                      !- Start Month
  1,                                      !- Start Day
  12,                                     !- End Month
  31;                                     !- End Day

OS:Schedule:Day,
  {5b0ea9f7-0987-45c8-a010-f4c58af905e3}, !- Handle
  cooling setpoint day,                   !- Name
  {1d2e4625-845f-49fd-8763-d6ded53b3b87}, !- Schedule Type Limits Name
  ,                                       !- Interpolate to Timestep
  24,                                     !- Hour 1
  0,                                      !- Minute 1
  25.5555555555556;                       !- Value Until Time 1

OS:ThermostatSetpoint:DualSetpoint,
  {251affe9-ae1d-4ce3-9446-ae6a1700caf2}, !- Handle
  conditioned space temperature setpoint, !- Name
  {8c9539bc-d447-4239-ac58-a58d156897a2}, !- Heating Setpoint Temperature Schedule Name
  {ede50aa6-daf7-4a81-ae31-691b0754ad43}, !- Cooling Setpoint Temperature Schedule Name
  0;                                      !- Temperature Difference Between Cutout And Setpoint {deltaC}

OS:ScheduleTypeLimits,
  {1d2e4625-845f-49fd-8763-d6ded53b3b87}, !- Handle
  Temperature,                            !- Name
  ,                                       !- Lower Limit Value
  ,                                       !- Upper Limit Value
  Continuous,                             !- Numeric Type
  Temperature;                            !- Unit Type

OS:Surface,
  {0bbc569d-09f4-40fb-b45f-00a7f8da03cc}, !- Handle
  Roof1,                                  !- Name
  RoofCeiling,                            !- Surface Type
  {db76987e-0a34-4f45-a942-7b8ec3ed0f6e}, !- Construction Name
  {e5f7fef2-fea4-4284-8663-9cd3b821540c}, !- Space Name
  Outdoors,                               !- Outside Boundary Condition
  ,                                       !- Outside Boundary Condition Object
  SunExposed,                             !- Sun Exposure
  WindExposed,                            !- Wind Exposure
  ,                                       !- View Factor to Ground
  ,                                       !- Number of Vertices
  -26.9347048849634, 58.0557891618865, 2.4384, !- X,Y,Z Vertex 1 {m}
  -26.9347048849634, 46.7895631136661, 8.0715130241102, !- X,Y,Z Vertex 2 {m}
  -14.3386812381136, 46.7895631136661, 8.0715130241102, !- X,Y,Z Vertex 3 {m}
  -14.3386812381136, 58.0557891618865, 2.4384; !- X,Y,Z Vertex 4 {m}

OS:AdditionalProperties,
  {25701c1b-b247-4310-86ef-3fdd298192e0}, !- Handle
  {0bbc569d-09f4-40fb-b45f-00a7f8da03cc}, !- Object Name
  Length,                                 !- Feature Name 1
  Double,                                 !- Feature Data Type 1
  41.325536899113608,                     !- Feature Value 1
  Width,                                  !- Feature Name 2
  Double,                                 !- Feature Data Type 2
  41.325536899113601,                     !- Feature Value 2
  Azimuth,                                !- Feature Name 3
  Integer,                                !- Feature Data Type 3
  0,                                      !- Feature Value 3
  Tilt,                                   !- Feature Name 4
  Double,                                 !- Feature Data Type 4
  0.5,                                    !- Feature Value 4
  SurfaceType,                            !- Feature Name 5
  String,                                 !- Feature Data Type 5
  Roof;                                   !- Feature Value 5

OS:ThermalZone,
  {c20c3dea-5a64-40fb-8bb4-d5edd1b2bbfa}, !- Handle
  attic - vented,                         !- Name
  1,                                      !- Multiplier
  ,                                       !- Ceiling Height {m}
  356.390921899745,                       !- Volume {m3}
  ,                                       !- Floor Area {m2}
  ,                                       !- Zone Inside Convection Algorithm
  ,                                       !- Zone Outside Convection Algorithm
  ,                                       !- Zone Conditioning Equipment List Name
  {b0441cc6-d13d-4029-a11b-14857d24c7c5}, !- Zone Air Inlet Port List
  {4cb5a0e2-4783-4c34-a08a-72d176e54fed}, !- Zone Air Exhaust Port List
  {8d3e293e-dcb8-48db-a161-e6560e9e8c1d}, !- Zone Air Node Name
  {3c10b470-781f-4801-9feb-54e1871dc97e}, !- Zone Return Air Port List
  ,                                       !- Primary Daylighting Control Name
  ,                                       !- Fraction of Zone Controlled by Primary Daylighting Control
  ,                                       !- Secondary Daylighting Control Name
  ,                                       !- Fraction of Zone Controlled by Secondary Daylighting Control
  ,                                       !- Illuminance Map Name
  ,                                       !- Group Rendering Name
  ,                                       !- Thermostat Name
  No;                                     !- Use Ideal Air Loads

OS:Node,
  {cf1b6620-cfcd-4168-9b43-a17048a89835}, !- Handle
  Node 2,                                 !- Name
  {8d3e293e-dcb8-48db-a161-e6560e9e8c1d}, !- Inlet Port
  ;                                       !- Outlet Port

OS:Connection,
  {8d3e293e-dcb8-48db-a161-e6560e9e8c1d}, !- Handle
  {c20c3dea-5a64-40fb-8bb4-d5edd1b2bbfa}, !- Source Object
  11,                                     !- Outlet Port
  {cf1b6620-cfcd-4168-9b43-a17048a89835}, !- Target Object
  2;                                      !- Inlet Port

OS:PortList,
  {b0441cc6-d13d-4029-a11b-14857d24c7c5}, !- Handle
  {c20c3dea-5a64-40fb-8bb4-d5edd1b2bbfa}; !- HVAC Component

OS:PortList,
  {4cb5a0e2-4783-4c34-a08a-72d176e54fed}, !- Handle
  {c20c3dea-5a64-40fb-8bb4-d5edd1b2bbfa}; !- HVAC Component

OS:PortList,
  {3c10b470-781f-4801-9feb-54e1871dc97e}, !- Handle
  {c20c3dea-5a64-40fb-8bb4-d5edd1b2bbfa}; !- HVAC Component

OS:Sizing:Zone,
  {7e8b251b-6271-4e77-b3e3-66217fdcc79d}, !- Handle
  {c20c3dea-5a64-40fb-8bb4-d5edd1b2bbfa}, !- Zone or ZoneList Name
  SupplyAirTemperature,                   !- Zone Cooling Design Supply Air Temperature Input Method
  14,                                     !- Zone Cooling Design Supply Air Temperature {C}
  11.11,                                  !- Zone Cooling Design Supply Air Temperature Difference {deltaC}
  SupplyAirTemperature,                   !- Zone Heating Design Supply Air Temperature Input Method
  40,                                     !- Zone Heating Design Supply Air Temperature {C}
  11.11,                                  !- Zone Heating Design Supply Air Temperature Difference {deltaC}
  0.0085,                                 !- Zone Cooling Design Supply Air Humidity Ratio {kg-H2O/kg-air}
  0.008,                                  !- Zone Heating Design Supply Air Humidity Ratio {kg-H2O/kg-air}
  ,                                       !- Zone Heating Sizing Factor
  ,                                       !- Zone Cooling Sizing Factor
  DesignDay,                              !- Cooling Design Air Flow Method
  ,                                       !- Cooling Design Air Flow Rate {m3/s}
  ,                                       !- Cooling Minimum Air Flow per Zone Floor Area {m3/s-m2}
  ,                                       !- Cooling Minimum Air Flow {m3/s}
  ,                                       !- Cooling Minimum Air Flow Fraction
  DesignDay,                              !- Heating Design Air Flow Method
  ,                                       !- Heating Design Air Flow Rate {m3/s}
  ,                                       !- Heating Maximum Air Flow per Zone Floor Area {m3/s-m2}
  ,                                       !- Heating Maximum Air Flow {m3/s}
  ,                                       !- Heating Maximum Air Flow Fraction
  No,                                     !- Account for Dedicated Outdoor Air System
  NeutralSupplyAir,                       !- Dedicated Outdoor Air System Control Strategy
  autosize,                               !- Dedicated Outdoor Air Low Setpoint Temperature for Design {C}
  autosize,                               !- Dedicated Outdoor Air High Setpoint Temperature for Design {C}
  Sensible Load Only No Latent Load,      !- Zone Load Sizing Method
  HumidityRatioDifference,                !- Zone Latent Cooling Design Supply Air Humidity Ratio Input Method
  ,                                       !- Zone Dehumidification Design Supply Air Humidity Ratio {kgWater/kgDryAir}
  0.005,                                  !- Zone Cooling Design Supply Air Humidity Ratio Difference {kgWater/kgDryAir}
  HumidityRatioDifference,                !- Zone Latent Heating Design Supply Air Humidity Ratio Input Method
  ,                                       !- Zone Humidification Design Supply Air Humidity Ratio {kgWater/kgDryAir}
  0.005,                                  !- Zone Humidification Design Supply Air Humidity Ratio Difference {kgWater/kgDryAir}
  ,                                       !- Zone Humidistat Dehumidification Set Point Schedule Name
  ,                                       !- Zone Humidistat Humidification Set Point Schedule Name
  ,                                       !- Design Zone Air Distribution Effectiveness in Cooling Mode
  ,                                       !- Design Zone Air Distribution Effectiveness in Heating Mode
  ,                                       !- Design Zone Secondary Recirculation Fraction {dimensionless}
  ,                                       !- Design Minimum Zone Ventilation Efficiency {dimensionless}
  Coincident;                             !- Sizing Option

OS:ZoneHVAC:EquipmentList,
  {ef32c0eb-a720-4986-8c2d-dd688d507f6d}, !- Handle
  Zone HVAC Equipment List 2,             !- Name
  {c20c3dea-5a64-40fb-8bb4-d5edd1b2bbfa}; !- Thermal Zone

OS:AdditionalProperties,
  {f84b9d6b-f3ae-4271-bbf5-7a20a5a90568}, !- Handle
  {c20c3dea-5a64-40fb-8bb4-d5edd1b2bbfa}, !- Object Name
  ObjectType,                             !- Feature Name 1
  String,                                 !- Feature Data Type 1
  attic - vented;                         !- Feature Value 1

OS:Space,
  {e5f7fef2-fea4-4284-8663-9cd3b821540c}, !- Handle
  attic - vented 1,                       !- Name
  ,                                       !- Space Type Name
  ,                                       !- Default Construction Set Name
  ,                                       !- Default Schedule Set Name
  ,                                       !- Direction of Relative North {deg}
  ,                                       !- X Origin {m}
  ,                                       !- Y Origin {m}
  ,                                       !- Z Origin {m}
  ,                                       !- Building Story Name
  {c20c3dea-5a64-40fb-8bb4-d5edd1b2bbfa}, !- Thermal Zone Name
  ,                                       !- Part of Total Floor Area
  ,                                       !- Design Specification Outdoor Air Object Name
  ,                                       !- Building Unit Name
  356.390921899745;                       !- Volume {m3}

OS:Material,
  {c64791bd-c7c0-4c13-bd59-faeafb656778}, !- Handle
  asphalt or fiberglass shingles,         !- Name