
OS:Version,
  {d1ef8ef1-e748-42ef-a7cb-0eb2ae6ccd1d}, !- Handle
  3.9.0;                                  !- Version Identifier

OS:SimulationControl,
  {dbabdad2-05ca-44f8-9493-fa886fecef71}, !- Handle
  ,                                       !- Do Zone Sizing Calculation
  ,                                       !- Do System Sizing Calculation
  ,                                       !- Do Plant Sizing Calculation
  No;                                     !- Run Simulation for Sizing Periods

OS:Timestep,
  {76de06f3-d03c-4bfd-b3b4-21c8d1189adc}, !- Handle
  1;                                      !- Number of Timesteps per Hour

OS:ShadowCalculation,
  {44e12455-a625-45d5-a49b-9feb6a2b8145}, !- Handle
  PolygonClipping,                        !- Shading Calculation Method
  ,                                       !- Shading Calculation Update Frequency Method
  20,                                     !- Shading Calculation Update Frequency
  200,                                    !- Maximum Figures in Shadow Overlap Calculations
  ,                                       !- Polygon Clipping Algorithm
  512,                                    !- Pixel Counting Resolution
  ,                                       !- Sky Diffuse Modeling Algorithm
  No,                                     !- Output External Shading Calculation Results
  No,                                     !- Disable Self-Shading Within Shading Zone Groups
  No;                                     !- Disable Self-Shading From Shading Zone Groups to Other Zones

OS:SurfaceConvectionAlgorithm:Outside,
  {df657810-fe3e-4b46-9356-e72acaf8d559}, !- Handle
  DOE-2;                                  !- Algorithm

OS:SurfaceConvectionAlgorithm:Inside,
  {bebcbed5-6b78-4d7f-aa68-ee1a06baebc8}, !- Handle
  TARP;                                   !- Algorithm

OS:ZoneCapacitanceMultiplier:ResearchSpecial,
  {980bb29c-4807-43c1-a7f0-2fc13d8aba3a}, !- Handle
  7,                                      !- Temperature Capacity Multiplier
  15,                                     !- Humidity Capacity Multiplier
  ;                                       !- Carbon Dioxide Capacity Multiplier

OS:ConvergenceLimits,
  {e6d07e80-47f0-453d-b682-7de19e14e5be}, !- Handle
  0;                                      !- Minimum System Timestep {minutes}

OS:RunPeriod,
  {7f626222-1907-4526-8a8d-4f6f39b8942d}, !- Handle
  Run Period 1,                           !- Name
  1,                                      !- Begin Month
  1,                                      !- Begin Day of Month
  12,                                     !- End Month
  31,                                     !- End Day of Month
  ,                                       !- Use Weather File Holidays and Special Days
  ,                                       !- Use Weather File Daylight Saving Period
  ,                                       !- Apply Weekend Holiday Rule
  ,                                       !- Use Weather File Rain Indicators
  ,                                       !- Use Weather File Snow Indicators
  ;                                       !- Number of Times Runperiod to be Repeated

OS:PerformancePrecisionTradeoffs,
  {25dfa3ca-1fa0-4286-a8fd-d6e358e15fb0}, !- Handle
  ,                                       !- Use Coil Direct Solutions
  CarrollMRT;                             !- Zone Radiant Exchange Algorithm

OS:WeatherFile,
  {06c1f5bf-af79-4dcd-821d-c50997309b2b}, !- Handle
  Buffalo Niagara Intl Ap,                !- City
  NY,                                     !- State Province Region
  USA,                                    !- Country
  TMY3,                                   !- Data Source
  725280,                                 !- WMO Number
  42.93,                                  !- Latitude {deg}
  -78.73,                                 !- Longitude {deg}
  -5,                                     !- Time Zone {hr}
  215,                                    !- Elevation {m}
  /Users/nmoore/github/urbanopt-example-geojson-project/example_project/weather/USA_NY_Buffalo-Greater.Buffalo.Intl.AP.725280_TMY3.epw, !- Url
  6B50E0FF,                               !- Checksum
  ,                                       !- Start Date Actual Year
  Sunday;                                 !- Start Day of Week

OS:YearDescription,
  {28919874-fa36-4a77-9457-229f6ee6c912}, !- Handle
  2007,                                   !- Calendar Year
  ,                                       !- Day of Week for Start Day
  ;                                       !- Is Leap Year

OS:Site,
  {e2377a49-a04f-4a91-b6b0-727d125e202e}, !- Handle
  Buffalo Niagara Intl Ap_NY,             !- Name
  42.93,                                  !- Latitude {deg}
  -78.73,                                 !- Longitude {deg}
  -5,                                     !- Time Zone {hr}
  215,                                    !- Elevation {m}
  Suburbs,                                !- Terrain
  Yes;                                    !- Keep Site Location Information

OS:RunPeriodControl:DaylightSavingTime,
  {04b49037-fb49-4ee1-8666-32b48f551051}, !- Handle
  Mar 12,                                 !- Start Date
  Nov 5;                                  !- End Date

OS:Site:GroundTemperature:Shallow,
  {8bc9fd4f-7766-468b-a720-4da673e2c121}, !- Handle
  4.30207395723828,                       !- January Surface Ground Temperature {C}
  2.29327249652502,                       !- February Surface Ground Temperature {C}
  2.13240047156047,                       !- March Surface Ground Temperature {C}
  3.08567940719286,                       !- April Surface Ground Temperature {C}
  6.91256312497526,                       !- May Surface Ground Temperature {C}
  10.7216195949507,                       !- June Surface Ground Temperature {C}
  14.0238679822574,                       !- July Surface Ground Temperature {C}
  16.1157611184724,                       !- August Surface Ground Temperature {C}
  16.2934789303462,                       !- September Surface Ground Temperature {C}
  14.5920754632847,                       !- October Surface Ground Temperature {C}
  11.374036348653,                        !- November Surface Ground Temperature {C}
  7.68182621661674;                       !- December Surface Ground Temperature {C}

OS:ThermalZone,
  {32cc6fa7-96be-4a31-b85d-35aeb2c3e9f0}, !- Handle
  conditioned space,                      !- Name
  1,                                      !- Multiplier
  ,                                       !- Ceiling Height {m}
  346.03186535424,                        !- Volume {m3}
  ,                                       !- Floor Area {m2}
  ,                                       !- Zone Inside Convection Algorithm
  ,                                       !- Zone Outside Convection Algorithm
  ,                                       !- Zone Conditioning Equipment List Name
  {f210a38b-f809-455f-aa1a-100c408c65cf}, !- Zone Air Inlet Port List
  {17e5e5b5-725d-468c-8705-5c1cbff833d0}, !- Zone Air Exhaust Port List
  {ab0236b7-be47-4240-943e-aa42d55fa2ed}, !- Zone Air Node Name
  {72f3a435-2cc3-4e8f-a133-db47280ee47a}, !- Zone Return Air Port List
  ,                                       !- Primary Daylighting Control Name
  ,                                       !- Fraction of Zone Controlled by Primary Daylighting Control
  ,                                       !- Secondary Daylighting Control Name
  ,                                       !- Fraction of Zone Controlled by Secondary Daylighting Control
  ,                                       !- Illuminance Map Name
  ,                                       !- Group Rendering Name
  {079a9fa8-fbdb-4060-8f89-eb8aebc78741}, !- Thermostat Name
  No;                                     !- Use Ideal Air Loads

OS:Node,
  {2fb6467b-ade6-4180-9383-33169fa478ea}, !- Handle
  Node 1,                                 !- Name
  {ab0236b7-be47-4240-943e-aa42d55fa2ed}, !- Inlet Port
  ;                                       !- Outlet Port

OS:Connection,
  {ab0236b7-be47-4240-943e-aa42d55fa2ed}, !- Handle
  {32cc6fa7-96be-4a31-b85d-35aeb2c3e9f0}, !- Source Object
  11,                                     !- Outlet Port
  {2fb6467b-ade6-4180-9383-33169fa478ea}, !- Target Object
  2;                                      !- Inlet Port

OS:PortList,
  {f210a38b-f809-455f-aa1a-100c408c65cf}, !- Handle
  {32cc6fa7-96be-4a31-b85d-35aeb2c3e9f0}, !- HVAC Component
  {4d600157-b29f-40af-ad48-5a91d88d9bfa}; !- Port 1

OS:PortList,
  {17e5e5b5-725d-468c-8705-5c1cbff833d0}, !- Handle
  {32cc6fa7-96be-4a31-b85d-35aeb2c3e9f0}; !- HVAC Component

OS:PortList,
  {72f3a435-2cc3-4e8f-a133-db47280ee47a}, !- Handle
  {32cc6fa7-96be-4a31-b85d-35aeb2c3e9f0}, !- HVAC Component
  {9f9f6bd2-c061-4f62-b8b6-e8b11aaaec38}; !- Port 1

OS:Sizing:Zone,
  {2d266a80-2652-4279-912f-b5a78bab5d53}, !- Handle
  {32cc6fa7-96be-4a31-b85d-35aeb2c3e9f0}, !- Zone or ZoneList Name
  SupplyAirTemperature,                   !- Zone Cooling Design Supply Air Temperature Input Method
  14,                                     !- Zone Cooling Design Supply Air Temperature {C}
  11.11,                                  !- Zone Cooling Design Supply Air Temperature Difference {deltaC}
  SupplyAirTemperature,                   !- Zone Heating Design Supply Air Temperature Input Method
  40,                                     !- Zone Heating Design Supply Air Temperature {C}
  11.11,                                  !- Zone Heating Design Supply Air Temperature Difference {deltaC}
  0.0085,                                 !- Zone Cooling Design Supply Air Humidity Ratio {kg-H2O/kg-air}
  0.008,                                  !- Zone Heating Design Supply Air Humidity Ratio {kg-H2O/kg-air}
  ,                                       !- Zone Heating Sizing Factor
  ,                                       !- Zone Cooling Sizing Factor
  DesignDay,                              !- Cooling Design Air Flow Method
  ,                                       !- Cooling Design Air Flow Rate {m3/s}
  ,                                       !- Cooling Minimum Air Flow per Zone Floor Area {m3/s-m2}
  ,                                       !- Cooling Minimum Air Flow {m3/s}
  ,                                       !- Cooling Minimum Air Flow Fraction
  DesignDay,                              !- Heating Design Air Flow Method
  ,                                       !- Heating Design Air Flow Rate {m3/s}
  ,                                       !- Heating Maximum Air Flow per Zone Floor Area {m3/s-m2}
  ,                                       !- Heating Maximum Air Flow {m3/s}
  ,                                       !- Heating Maximum Air Flow Fraction
  No,                                     !- Account for Dedicated Outdoor Air System
  NeutralSupplyAir,                       !- Dedicated Outdoor Air System Control Strategy
  autosize,                               !- Dedicated Outdoor Air Low Setpoint Temperature for Design {C}
  autosize,                               !- Dedicated Outdoor Air High Setpoint Temperature for Design {C}
  Sensible Load Only No Latent Load,      !- Zone Load Sizing Method
  HumidityRatioDifference,                !- Zone Latent Cooling Design Supply Air Humidity Ratio Input Method
  ,                                       !- Zone Dehumidification Design Supply Air Humidity Ratio {kgWater/kgDryAir}
  0.005,                                  !- Zone Cooling Design Supply Air Humidity Ratio Difference {kgWater/kgDryAir}
  HumidityRatioDifference,                !- Zone Latent Heating Design Supply Air Humidity Ratio Input Method
  ,                                       !- Zone Humidification Design Supply Air Humidity Ratio {kgWater/kgDryAir}
  0.005,                                  !- Zone Humidification Design Supply Air Humidity Ratio Difference {kgWater/kgDryAir}
  ,                                       !- Zone Humidistat Dehumidification Set Point Schedule Name
  ,                                       !- Zone Humidistat Humidification Set Point Schedule Name
  ,                                       !- Design Zone Air Distribution Effectiveness in Cooling Mode
  ,                                       !- Design Zone Air Distribution Effectiveness in Heating Mode
  ,                                       !- Design Zone Secondary Recirculation Fraction {dimensionless}
  ,                                       !- Design Minimum Zone Ventilation Efficiency {dimensionless}
  Coincident;                             !- Sizing Option

OS:ZoneHVAC:EquipmentList,
  {f1a3723e-ca9b-4dcc-b82e-402b0c209e68}, !- Handle
  Zone HVAC Equipment List 1,             !- Name
  {32cc6fa7-96be-4a31-b85d-35aeb2c3e9f0}, !- Thermal Zone
  ,                                       !- Load Distribution Scheme
  {7bec7d51-3771-429a-8975-e6f96fa01951}, !- Zone Equipment 1
  1,                                      !- Zone Equipment Cooling Sequence 1
  1,                                      !- Zone Equipment Heating or No-Load Sequence 1
  {5a685c6a-51b0-41b7-8037-ab34c38dcab7}, !- Zone Equipment Sequential Cooling Fraction Schedule Name 1
  {aa5d2664-2889-4922-a628-12ed6ca03f89}; !- Zone Equipment Sequential Heating Fraction Schedule Name 1

OS:AdditionalProperties,
  {59c0a429-ec3a-44c9-8a47-a397a8f81bcb}, !- Handle
  {32cc6fa7-96be-4a31-b85d-35aeb2c3e9f0}, !- Object Name
  ObjectType,                             !- Feature Name 1
  String,                                 !- Feature Data Type 1
  conditioned space;                      !- Feature Value 1

OS:Space,
  {4a22e5f4-d905-4e61-8d0c-141d4c8dae21}, !- Handle
  conditioned space 1,                    !- Name
  ,                                       !- Space Type Name
  ,                                       !- Default Construction Set Name
  ,                                       !- Default Schedule Set Name
  ,                                       !- Direction of Relative North {deg}
  ,                                       !- X Origin {m}
  ,                                       !- Y Origin {m}
  ,                                       !- Z Origin {m}
  ,                                       !- Building Story Name
  {32cc6fa7-96be-4a31-b85d-35aeb2c3e9f0}, !- Thermal Zone Name
  ,                                       !- Part of Total Floor Area
  ,                                       !- Design Specification Outdoor Air Object Name
  ,                                       !- Building Unit Name
  346.03186535424;                        !- Volume {m3}

OS:Schedule:Ruleset,
  {787017a4-24ea-46d5-ad62-da238ea074bf}, !- Handle
  heating setpoint,                       !- Name
  {204ce920-ea36-493f-ada2-b943cbb2578e}, !- Schedule Type Limits Name
  {623a2458-3a26-486e-93d2-ddbc3a9342aa}; !- Default Day Schedule Name

OS:Schedule:Day,
  {623a2458-3a26-486e-93d2-ddbc3a9342aa}, !- Handle
  heating setpoint default day,           !- Name
  {204ce920-ea36-493f-ada2-b943cbb2578e}, !- Schedule Type Limits Name
  ,                                       !- Interpolate to Timestep
  24,                                     !- Hour 1
  0,                                      !- Minute 1
  0;                                      !- Value Until Time 1

OS:Schedule:Rule,
  {b8367240-a61b-4ff8-a1b3-9467f93cf33c}, !- Handle
  heating setpoint allday rule,           !- Name
  {787017a4-24ea-46d5-ad62-da238ea074bf}, !- Schedule Ruleset Name
  0,                                      !- Rule Order
  {055563e7-9e8b-4d12-aabf-13676ba4f326}, !- Day Schedule Name
  Yes,                                    !- Apply Sunday
  Yes,                                    !- Apply Monday
  Yes,                                    !- Apply Tuesday
  Yes,                                    !- Apply Wednesday
  Yes,                                    !- Apply Thursday
  Yes,                                    !- Apply Friday
  Yes,                                    !- Apply Saturday
  DateRange,                              !- Date Specification Type
  1,                                      !- Start Month
  1,                                      !- Start Day
  12,                                     !- End Month
  31;                                     !- End Day

OS:Schedule:Day,
  {055563e7-9e8b-4d12-aabf-13676ba4f326}, !- Handle
  heating setpoint day,                   !- Name
  {204ce920-ea36-493f-ada2-b943cbb2578e}, !- Schedule Type Limits Name
  ,                                       !- Interpolate to Timestep
  24,                                     !- Hour 1
  0,                                      !- Minute 1
  20;                                     !- Value Until Time 1

OS:Schedule:Ruleset,
  {f9b0c45b-0e3d-40ed-9937-8c91ad98f1ef}, !- Handle
  cooling setpoint,                       !- Name
  {204ce920-ea36-493f-ada2-b943cbb2578e}, !- Schedule Type Limits Name
  {9b2076fe-2e7a-4855-80da-fa23d36206aa}; !- Default Day Schedule Name

OS:Schedule:Day,
  {9b2076fe-2e7a-4855-80da-fa23d36206aa}, !- Handle
  cooling setpoint default day,           !- Name
  {204ce920-ea36-493f-ada2-b943cbb2578e}, !- Schedule Type Limits Name
  ,                                       !- Interpolate to Timestep
  24,                                     !- Hour 1
  0,                                      !- Minute 1
  0;                                      !- Value Until Time 1

OS:Schedule:Rule,
  {0fe693f9-b2b0-41d5-995e-4b1d25ec8468}, !- Handle
  cooling setpoint allday rule,           !- Name
  {f9b0c45b-0e3d-40ed-9937-8c91ad98f1ef}, !- Schedule Ruleset Name
  0,                                      !- Rule Order
  {8038d566-b609-4e6e-806f-18a49d561589}, !- Day Schedule Name
  Yes,                                    !- Apply Sunday
  Yes,                                    !- Apply Monday
  Yes,                                    !- Apply Tuesday
  Yes,                                    !- Apply Wednesday
  Yes,                                    !- Apply Thursday
  Yes,                                    !- Apply Friday
  Yes,                                    !- Apply Saturday
  DateRange,                              !- Date Specification Type
  1,                                      !- Start Month
  1,                                      !- Start Day
  12,                                     !- End Month
  31;                                     !- End Day

OS:Schedule:Day,
  {8038d566-b609-4e6e-806f-18a49d561589}, !- Handle
  cooling setpoint day,                   !- Name
  {204ce920-ea36-493f-ada2-b943cbb2578e}, !- Schedule Type Limits Name
  ,                                       !- Interpolate to Timestep
  24,                                     !- Hour 1
  0,                                      !- Minute 1
  25.5555555555556;                       !- Value Until Time 1

OS:ThermostatSetpoint:DualSetpoint,
  {079a9fa8-fbdb-4060-8f89-eb8aebc78741}, !- Handle
  conditioned space temperature setpoint, !- Name
  {787017a4-24ea-46d5-ad62-da238ea074bf}, !- Heating Setpoint Temperature Schedule Name
  {f9b0c45b-0e3d-40ed-9937-8c91ad98f1ef}, !- Cooling Setpoint Temperature Schedule Name
  0;                                      !- Temperature Difference Between Cutout And Setpoint {deltaC}

OS:ScheduleTypeLimits,
  {204ce920-ea36-493f-ada2-b943cbb2578e}, !- Handle
  Temperature,                            !- Name
  ,                                       !- Lower Limit Value
  ,                                       !- Upper Limit Value
  Continuous,                             !- Numeric Type
  Temperature;                            !- Unit Type

OS:Surface,
  {08893cac-3473-4e0a-9b36-9d53099cde73}, !- Handle
  Wall1,                                  !- Name
  Wall,                                   !- Surface Type
  {32a28b06-6b93-445d-8440-8628f6d61c35}, !- Construction Name
  {4a22e5f4-d905-4e61-8d0c-141d4c8dae21}, !- Space Name
  Outdoors,                               !- Outside Boundary Condition
  ,                                       !- Outside Boundary Condition Object
  SunExposed,                             !- Sun Exposure
  WindExposed,                            !- Wind Exposure
  ,                                       !- View Factor to Ground
  ,                                       !- Number of Vertices
  -4.95193308575712, 6.96193691424288, 0, !- X,Y,Z Vertex 1 {m}
  -4.95193308575712, 6.96193691424288, 2.4384, !- X,Y,Z Vertex 2 {m}
  6.96193691424288, 6.96193691424288, 2.4384, !- X,Y,Z Vertex 3 {m}
  6.96193691424288, 6.96193691424288, 0;  !- X,Y,Z Vertex 4 {m}

OS:AdditionalProperties,
  {32a0f69a-57b8-4205-b85b-a90a095b6cb3}, !- Handle
  {08893cac-3473-4e0a-9b36-9d53099cde73}, !- Object Name
  Length,                                 !- Feature Name 1
  Double,                                 !- Feature Data Type 1
  39.087499999999999,                     !- Feature Value 1
  Azimuth,                                !- Feature Name 2
  Integer,                                !- Feature Data Type 2
  0,                                      !- Feature Value 2
  Tilt,                                   !- Feature Name 3
  Double,                                 !- Feature Data Type 3
  90,                                     !- Feature Value 3
  SurfaceType,                            !- Feature Name 4
  String,                                 !- Feature Data Type 4
  Wall;                                   !- Feature Value 4

OS:Material,
  {ce2c8f9d-22ce-4c34-aa06-ea2afdc6dece}, !- Handle
  wood siding,                            !- Name
  Rough,                                  !- Roughness
  0.0254,                                 !- Thickness {m}
  0.1024175,                              !- Conductivity {W/m-K}
  544.68,                                 !- Density {kg/m3}
  1172.36,                                !- Specific Heat {J/kg-K}
  0.9,                                    !- Thermal Absorptance
  0.7,                                    !- Solar Absorptance
  0.7;                                    !- Visible Absorptance

OS:Material,
  {f6aa1005-6dff-4c0f-bceb-b52881e8e3f5}, !- Handle
  osb sheathing 0.5 in.,                  !- Name
  Rough,                                  !- Roughness
  0.0127,                                 !- Thickness {m}
  0.1154577,                              !- Conductivity {W/m-K}
  512.64,                                 !- Density {kg/m3}
  1214.23,                                !- Specific Heat {J/kg-K}
  0.9,                                    !- Thermal Absorptance
  0.7,                                    !- Solar Absorptance
  0.7;                                    !- Visible Absorptance

OS:Material,
  {d27d2e6a-a80d-499e-8267-ed0e815a36f7}, !- Handle
  wall stud and cavity,                   !- Name
  Rough,                                  !- Roughness
  0.1397,                                 !- Thickness {m}
  0.0929021674204099,                     !- Conductivity {W/m-K}
  139.0536,                               !- Density {kg/m3}
  1170.23755760369,                       !- Specific Heat {J/kg-K}
  0.9,                                    !- Thermal Absorptance
  0.7,                                    !- Solar Absorptance
  0.7;                                    !- Visible Absorptance

OS:Material,
  {61040fa1-87ac-4450-8351-7416a34aa70d}, !- Handle
  gypsum board,                           !- Name
  Rough,                                  !- Roughness
  0.0127,                                 !- Thickness {m}
  0.1602906,                              !- Conductivity {W/m-K}
  801,                                    !- Density {kg/m3}
  837.4,                                  !- Specific Heat {J/kg-K}
  0.9,                                    !- Thermal Absorptance
  0.6,                                    !- Solar Absorptance
  0.6;                                    !- Visible Absorptance

OS:Construction,
  {32a28b06-6b93-445d-8440-8628f6d61c35}, !- Handle
  Wall1 construction,                     !- Name
  ,                                       !- Surface Rendering Name
  {ce2c8f9d-22ce-4c34-aa06-ea2afdc6dece}, !- Layer 1
  {f6aa1005-6dff-4c0f-bceb-b52881e8e3f5}, !- Layer 2
  {d27d2e6a-a80d-499e-8267-ed0e815a36f7}, !- Layer 3
  {61040fa1-87ac-4450-8351-7416a34aa70d}; !- Layer 4

OS:Surface,
  {399ed5b0-b9b0-46dc-b06e-5ff2fc8c4aa3}, !- Handle
  Wall2,                                  !- Name
  Wall,                                   !- Surface Type
  {3dbc7d11-ee18-41b4-b1de-4c663b7e934f}, !- Construction Name
  {4a22e5f4-d905-4e61-8d0c-141d4c8dae21}, !- Space Name
  Outdoors,                               !- Outside Boundary Condition
  ,                                       !- Outside Boundary Condition Object
  SunExposed,                             !- Sun Exposure
  WindExposed,                            !- Wind Exposure
  ,                                       !- View Factor to Ground
  ,                                       !- Number of Vertices
  6.96193691424288, -1.00690691424288, 0, !- X,Y,Z Vertex 1 {m}
  6.96193691424288, -1.00690691424288, 2.4384, !- X,Y,Z Vertex 2 {m}
  6.96193691424288, -6.96193691424288, 2.4384, !- X,Y,Z Vertex 3 {m}
  6.96193691424288, -6.96193691424288, 0; !- X,Y,Z Vertex 4 {m}

OS:AdditionalProperties,
  {ab5d7807-b1bc-46a8-8417-5d02ca8c38f6}, !- Handle
  {399ed5b0-b9b0-46dc-b06e-5ff2fc8c4aa3}, !- Object Name
  Length,                                 !- Feature Name 1
  Double,                                 !- Feature Data Type 1
  19.537500000000001,                     !- Feature Value 1
  Azimuth,                                !- Feature Name 2
  Integer,                                !- Feature Data Type 2
  90,                                     !- Feature Value 2
  Tilt,                                   !- Feature Name 3
  Double,                                 !- Feature Data Type 3
  90,                                     !- Feature Value 3
  SurfaceType,                            !- Feature Name 4
  String,                                 !- Feature Data Type 4
  Wall;                                   !- Feature Value 4

OS:Construction,
  {3dbc7d11-ee18-41b4-b1de-4c663b7e934f}, !- Handle
  Wall2 construction,                     !- Name
  ,                                       !- Surface Rendering Name
  {ce2c8f9d-22ce-4c34-aa06-ea2afdc6dece}, !- Layer 1
  {f6aa1005-6dff-4c0f-bceb-b52881e8e3f5}, !- Layer 2
  {d27d2e6a-a80d-499e-8267-ed0e815a36f7}, !- Layer 3
  {61040fa1-87ac-4450-8351-7416a34aa70d}; !- Layer 4

OS:Surface,
  {1ac9378d-42d9-461d-80d7-b042ce3ef183}, !- Handle
  Wall3,                                  !- Name
  Wall,                                   !- Surface Type
  {e91a1e92-ab07-44e5-a861-70700014e993}, !- Construction Name
  {4a22e5f4-d905-4e61-8d0c-141d4c8dae21}, !- Space Name
  Outdoors,                               !- Outside Boundary Condition
  ,                                       !- Outside Boundary Condition Object
  SunExposed,                             !- Sun Exposure
  WindExposed,                            !- Wind Exposure
  ,                                       !- View Factor to Ground
  ,                                       !- Number of Vertices
  6.03290651424288, -6.96193691424288, 0, !- X,Y,Z Vertex 1 {m}
  6.03290651424288, -6.96193691424288, 2.4384, !- X,Y,Z Vertex 2 {m}
  -5.11896348575712, -6.96193691424288, 2.4384, !- X,Y,Z Vertex 3 {m}
  -5.11896348575712, -6.96193691424288, 0; !- X,Y,Z Vertex 4 {m}

OS:AdditionalProperties,
  {54de1267-1125-4f59-a6a7-425851d4b667}, !- Handle
  {1ac9378d-42d9-461d-80d7-b042ce3ef183}, !- Object Name
  Length,                                 !- Feature Name 1
  Double,                                 !- Feature Data Type 1
  36.587499999999999,                     !- Feature Value 1
  Azimuth,                                !- Feature Name 2
  Integer,                                !- Feature Data Type 2
  180,                                    !- Feature Value 2
  Tilt,                                   !- Feature Name 3
  Double,                                 !- Feature Data Type 3
  90,                                     !- Feature Value 3
  SurfaceType,                            !- Feature Name 4
  String,                                 !- Feature Data Type 4
  Wall;                                   !- Feature Value 4

OS:Construction,
  {e91a1e92-ab07-44e5-a861-70700014e993}, !- Handle
  Wall3 construction,                     !- Name
  ,                                       !- Surface Rendering Name
  {ce2c8f9d-22ce-4c34-aa06-ea2afdc6dece}, !- Layer 1
  {f6aa1005-6dff-4c0f-bceb-b52881e8e3f5}, !- Layer 2
  {d27d2e6a-a80d-499e-8267-ed0e815a36f7}, !- Layer 3
  {61040fa1-87ac-4450-8351-7416a34aa70d}; !- Layer 4

OS:Surface,
  {968dd801-e52e-4c1e-9286-28075168f645}, !- Handle
  Wall4,                                  !- Name
  Wall,                                   !- Surface Type
  {2bdd5e41-9ade-49c2-bba5-20a9b24feebd}, !- Construction Name
  {4a22e5f4-d905-4e61-8d0c-141d4c8dae21}, !- Space Name
  Outdoors,                               !- Outside Boundary Condition
  ,                                       !- Outside Boundary Condition Object
  SunExposed,                             !- Sun Exposure
  WindExposed,                            !- Wind Exposure
  ,                                       !- View Factor to Ground
  ,                                       !- Number of Vertices
  -6.96193691424288, 1.00690691424288, 0, !- X,Y,Z Vertex 1 {m}
  -6.96193691424288, 1.00690691424288, 2.4384, !- X,Y,Z Vertex 2 {m}
  -6.96193691424288, 6.96193691424288, 2.4384, !- X,Y,Z Vertex 3 {m}
  -6.96193691424288, 6.96193691424288, 0; !- X,Y,Z Vertex 4 {m}

OS:AdditionalProperties,
  {37aaf8d5-eace-4ec5-94df-2381a2cea678}, !- Handle
  {968dd801-e52e-4c1e-9286-28075168f645}, !- Object Name