
OS:Version,
  {2cd2a77f-634e-4088-87fb-3ec101da4b68}, !- Handle
  3.10.0;                                 !- Version Identifier

OS:SimulationControl,
  {061fc577-2875-4d9c-9b07-ce52a2bb8000}, !- Handle
  ,                                       !- Do Zone Sizing Calculation
  ,                                       !- Do System Sizing Calculation
  ,                                       !- Do Plant Sizing Calculation
  No;                                     !- Run Simulation for Sizing Periods

OS:Timestep,
  {61b9e07c-70fe-4b6b-8260-e4daebdbf8e5}, !- Handle
  1;                                      !- Number of Timesteps per Hour

OS:ShadowCalculation,
  {7bc9d0ef-5a3f-4fbb-8960-13fc08469f0f}, !- Handle
  PolygonClipping,                        !- Shading Calculation Method
  ,                                       !- Shading Calculation Update Frequency Method
  20,                                     !- Shading Calculation Update Frequency
  200,                                    !- Maximum Figures in Shadow Overlap Calculations
  ,                                       !- Polygon Clipping Algorithm
  512,                                    !- Pixel Counting Resolution
  ,                                       !- Sky Diffuse Modeling Algorithm
  No,                                     !- Output External Shading Calculation Results
  No,                                     !- Disable Self-Shading Within Shading Zone Groups
  No;                                     !- Disable Self-Shading From Shading Zone Groups to Other Zones

OS:SurfaceConvectionAlgorithm:Outside,
  {cbbf2322-54a0-45ac-91cc-01fc5abaac1c}, !- Handle
  DOE-2;                                  !- Algorithm

OS:SurfaceConvectionAlgorithm:Inside,
  {06ba7f3c-ab42-4212-b051-2961339e36f1}, !- Handle
  TARP;                                   !- Algorithm

OS:ZoneCapacitanceMultiplier:ResearchSpecial,
  {489a3773-e122-435f-99df-04d9432a35af}, !- Handle
  7,                                      !- Temperature Capacity Multiplier
  15,                                     !- Humidity Capacity Multiplier
  ;                                       !- Carbon Dioxide Capacity Multiplier

OS:ConvergenceLimits,
  {e7d5e2a5-6c57-4c5f-96dc-c640c85c1c1c}, !- Handle
  0;                                      !- Minimum System Timestep {minutes}

OS:RunPeriod,
  {c850949f-6987-496e-9480-640beb898c19}, !- Handle
  Run Period 1,                           !- Name
  1,                                      !- Begin Month
  1,                                      !- Begin Day of Month
  12,                                     !- End Month
  31,                                     !- End Day of Month
  ,                                       !- Use Weather File Holidays and Special Days
  ,                                       !- Use Weather File Daylight Saving Period
  ,                                       !- Apply Weekend Holiday Rule
  ,                                       !- Use Weather File Rain Indicators
  ,                                       !- Use Weather File Snow Indicators
  ;                                       !- Number of Times Runperiod to be Repeated

OS:PerformancePrecisionTradeoffs,
  {0796c2a7-e692-48ee-ba46-ccb365531e07}, !- Handle
  ,                                       !- Use Coil Direct Solutions
  CarrollMRT;                             !- Zone Radiant Exchange Algorithm

OS:WeatherFile,
  {2073cbd2-3424-4299-a5d0-57ffab36ef01}, !- Handle
  Buffalo Niagara Intl Ap,                !- City
  NY,                                     !- State Province Region
  USA,                                    !- Country
  TMY3,                                   !- Data Source
  725280,                                 !- WMO Number
  42.93,                                  !- Latitude {deg}
  -78.73,                                 !- Longitude {deg}
  -5,                                     !- Time Zone {hr}
  215,                                    !- Elevation {m}
  /Users/nmoore/github/urbanopt-example-geojson-project/example_project/weather/USA_NY_Buffalo-Greater.Buffalo.Intl.AP.725280_TMY3.epw, !- Url
  6B50E0FF,                               !- Checksum
  ,                                       !- Start Date Actual Year
  Sunday;                                 !- Start Day of Week

OS:YearDescription,
  {77e51e33-08f3-4020-a42c-a1586950b682}, !- Handle
  2007,                                   !- Calendar Year
  ,                                       !- Day of Week for Start Day
  ;                                       !- Is Leap Year

OS:Site,
  {03aa0365-9b96-46bc-8c4d-b0754d132f61}, !- Handle
  Buffalo Niagara Intl Ap_NY,             !- Name
  42.93,                                  !- Latitude {deg}
  -78.73,                                 !- Longitude {deg}
  -5,                                     !- Time Zone {hr}
  215,                                    !- Elevation {m}
  Suburbs,                                !- Terrain
  Yes;                                    !- Keep Site Location Information

OS:RunPeriodControl:DaylightSavingTime,
  {635dc101-c8f7-41da-b479-3ca11a373662}, !- Handle
  Mar 12,                                 !- Start Date
  Nov 5;                                  !- End Date

OS:Site:GroundTemperature:Shallow,
  {104a5785-ea0f-4664-b428-37ec01479352}, !- Handle
  4.30207395723828,                       !- January Surface Ground Temperature {C}
  2.29327249652502,                       !- February Surface Ground Temperature {C}
  2.13240047156047,                       !- March Surface Ground Temperature {C}
  3.08567940719286,                       !- April Surface Ground Temperature {C}
  6.91256312497526,                       !- May Surface Ground Temperature {C}
  10.7216195949507,                       !- June Surface Ground Temperature {C}
  14.0238679822574,                       !- July Surface Ground Temperature {C}
  16.1157611184724,                       !- August Surface Ground Temperature {C}
  16.2934789303462,                       !- September Surface Ground Temperature {C}
  14.5920754632847,                       !- October Surface Ground Temperature {C}
  11.374036348653,                        !- November Surface Ground Temperature {C}
  7.68182621661674;                       !- December Surface Ground Temperature {C}

OS:ThermalZone,
  {46dc3850-486d-447a-b31f-acf30483ce84}, !- Handle
  conditioned space,                      !- Name
  1,                                      !- Multiplier
  ,                                       !- Ceiling Height {m}
  346.03186535424,                        !- Volume {m3}
  ,                                       !- Floor Area {m2}
  ,                                       !- Zone Inside Convection Algorithm
  ,                                       !- Zone Outside Convection Algorithm
  ,                                       !- Zone Conditioning Equipment List Name
  {6d545f02-8d66-469b-b5a8-fcb7eb8522e0}, !- Zone Air Inlet Port List
  {0c9f0f74-264f-4e3a-a605-0559a71f10bc}, !- Zone Air Exhaust Port List
  {2fb4787e-9728-43f8-a2f1-8677ad6cde3c}, !- Zone Air Node Name
  {e3c41d0e-50a0-4d4e-ac38-02f11932e7e7}, !- Zone Return Air Port List
  ,                                       !- Primary Daylighting Control Name
  ,                                       !- Fraction of Zone Controlled by Primary Daylighting Control
  ,                                       !- Secondary Daylighting Control Name
  ,                                       !- Fraction of Zone Controlled by Secondary Daylighting Control
  ,                                       !- Illuminance Map Name
  ,                                       !- Group Rendering Name
  {5e27d9b1-fa72-4197-afda-b36bece51175}, !- Thermostat Name
  No;                                     !- Use Ideal Air Loads

OS:Node,
  {fdd3d736-e451-410f-b92b-787e701f5c13}, !- Handle
  Node 1,                                 !- Name
  {2fb4787e-9728-43f8-a2f1-8677ad6cde3c}, !- Inlet Port
  ;                                       !- Outlet Port

OS:Connection,
  {2fb4787e-9728-43f8-a2f1-8677ad6cde3c}, !- Handle
  {46dc3850-486d-447a-b31f-acf30483ce84}, !- Source Object
  11,                                     !- Outlet Port
  {fdd3d736-e451-410f-b92b-787e701f5c13}, !- Target Object
  2;                                      !- Inlet Port

OS:PortList,
  {6d545f02-8d66-469b-b5a8-fcb7eb8522e0}, !- Handle
  {46dc3850-486d-447a-b31f-acf30483ce84}, !- HVAC Component
  {0b000e1a-05ca-4ce6-bb23-220c832d6eeb}; !- Port 1

OS:PortList,
  {0c9f0f74-264f-4e3a-a605-0559a71f10bc}, !- Handle
  {46dc3850-486d-447a-b31f-acf30483ce84}; !- HVAC Component

OS:PortList,
  {e3c41d0e-50a0-4d4e-ac38-02f11932e7e7}, !- Handle
  {46dc3850-486d-447a-b31f-acf30483ce84}, !- HVAC Component
  {c49ff2df-9ef4-4f75-bad1-8574d4756377}; !- Port 1

OS:Sizing:Zone,
  {02d0c199-1340-45fd-b677-93e5e0aab887}, !- Handle
  {46dc3850-486d-447a-b31f-acf30483ce84}, !- Zone or ZoneList Name
  SupplyAirTemperature,                   !- Zone Cooling Design Supply Air Temperature Input Method
  14,                                     !- Zone Cooling Design Supply Air Temperature {C}
  11.11,                                  !- Zone Cooling Design Supply Air Temperature Difference {deltaC}
  SupplyAirTemperature,                   !- Zone Heating Design Supply Air Temperature Input Method
  40,                                     !- Zone Heating Design Supply Air Temperature {C}
  11.11,                                  !- Zone Heating Design Supply Air Temperature Difference {deltaC}
  0.0085,                                 !- Zone Cooling Design Supply Air Humidity Ratio {kg-H2O/kg-air}
  0.008,                                  !- Zone Heating Design Supply Air Humidity Ratio {kg-H2O/kg-air}
  ,                                       !- Zone Heating Sizing Factor
  ,                                       !- Zone Cooling Sizing Factor
  DesignDay,                              !- Cooling Design Air Flow Method
  ,                                       !- Cooling Design Air Flow Rate {m3/s}
  ,                                       !- Cooling Minimum Air Flow per Zone Floor Area {m3/s-m2}
  ,                                       !- Cooling Minimum Air Flow {m3/s}
  ,                                       !- Cooling Minimum Air Flow Fraction
  DesignDay,                              !- Heating Design Air Flow Method
  ,                                       !- Heating Design Air Flow Rate {m3/s}
  ,                                       !- Heating Maximum Air Flow per Zone Floor Area {m3/s-m2}
  ,                                       !- Heating Maximum Air Flow {m3/s}
  ,                                       !- Heating Maximum Air Flow Fraction
  No,                                     !- Account for Dedicated Outdoor Air System
  NeutralSupplyAir,                       !- Dedicated Outdoor Air System Control Strategy
  autosize,                               !- Dedicated Outdoor Air Low Setpoint Temperature for Design {C}
  autosize,                               !- Dedicated Outdoor Air High Setpoint Temperature for Design {C}
  Sensible Load Only No Latent Load,      !- Zone Load Sizing Method
  HumidityRatioDifference,                !- Zone Latent Cooling Design Supply Air Humidity Ratio Input Method
  ,                                       !- Zone Dehumidification Design Supply Air Humidity Ratio {kgWater/kgDryAir}
  0.005,                                  !- Zone Cooling Design Supply Air Humidity Ratio Difference {kgWater/kgDryAir}
  HumidityRatioDifference,                !- Zone Latent Heating Design Supply Air Humidity Ratio Input Method
  ,                                       !- Zone Humidification Design Supply Air Humidity Ratio {kgWater/kgDryAir}
  0.005,                                  !- Zone Humidification Design Supply Air Humidity Ratio Difference {kgWater/kgDryAir}
  ,                                       !- Zone Humidistat Dehumidification Set Point Schedule Name
  ,                                       !- Zone Humidistat Humidification Set Point Schedule Name
  ,                                       !- Design Zone Air Distribution Effectiveness in Cooling Mode
  ,                                       !- Design Zone Air Distribution Effectiveness in Heating Mode
  ,                                       !- Design Zone Secondary Recirculation Fraction {dimensionless}
  ,                                       !- Design Minimum Zone Ventilation Efficiency {dimensionless}
  Coincident;                             !- Sizing Option

OS:ZoneHVAC:EquipmentList,
  {24e5a291-9100-43c1-b0c9-391187c9edb0}, !- Handle
  Zone HVAC Equipment List 1,             !- Name
  {46dc3850-486d-447a-b31f-acf30483ce84}, !- Thermal Zone
  ,                                       !- Load Distribution Scheme
  {243b9f9c-3cdf-411e-afbf-21276fae05d6}, !- Zone Equipment 1
  1,                                      !- Zone Equipment Cooling Sequence 1
  1,                                      !- Zone Equipment Heating or No-Load Sequence 1
  {8539a727-cb19-42a7-8676-98c39d0fd176}, !- Zone Equipment Sequential Cooling Fraction Schedule Name 1
  {b13e0442-2ac3-45d8-bb36-f5d5254df0f4}; !- Zone Equipment Sequential Heating Fraction Schedule Name 1

OS:AdditionalProperties,
  {83ed6977-5023-4afc-a5d0-9a8c6099a4d8}, !- Handle
  {46dc3850-486d-447a-b31f-acf30483ce84}, !- Object Name
  ObjectType,                             !- Feature Name 1
  String,                                 !- Feature Data Type 1
  conditioned space;                      !- Feature Value 1

OS:Space,
  {bea04bae-f866-4c68-a829-a8f3e8a98753}, !- Handle
  conditioned space 1,                    !- Name
  ,                                       !- Space Type Name
  ,                                       !- Default Construction Set Name
  ,                                       !- Default Schedule Set Name
  ,                                       !- Direction of Relative North {deg}
  ,                                       !- X Origin {m}
  ,                                       !- Y Origin {m}
  ,                                       !- Z Origin {m}
  ,                                       !- Building Story Name
  {46dc3850-486d-447a-b31f-acf30483ce84}, !- Thermal Zone Name
  ,                                       !- Part of Total Floor Area
  ,                                       !- Design Specification Outdoor Air Object Name
  ,                                       !- Building Unit Name
  346.03186535424;                        !- Volume {m3}

OS:Schedule:Ruleset,
  {6459f662-4cc4-4547-89cf-772a537cbd5c}, !- Handle
  heating setpoint,                       !- Name
  {616b56ec-e6d7-4c30-a35a-5c8ba897b93f}, !- Schedule Type Limits Name
  {539aaf83-dba1-43ff-85ba-8d078d30885b}; !- Default Day Schedule Name

OS:Schedule:Day,
  {539aaf83-dba1-43ff-85ba-8d078d30885b}, !- Handle
  heating setpoint default day,           !- Name
  {616b56ec-e6d7-4c30-a35a-5c8ba897b93f}, !- Schedule Type Limits Name
  ,                                       !- Interpolate to Timestep
  24,                                     !- Hour 1
  0,                                      !- Minute 1
  0;                                      !- Value Until Time 1

OS:Schedule:Rule,
  {a4b6b600-716b-4e79-89d2-756b023925ab}, !- Handle
  heating setpoint allday rule,           !- Name
  {6459f662-4cc4-4547-89cf-772a537cbd5c}, !- Schedule Ruleset Name
  0,                                      !- Rule Order
  {bd2cf873-1a40-4aa3-bef0-0db163d7d405}, !- Day Schedule Name
  Yes,                                    !- Apply Sunday
  Yes,                                    !- Apply Monday
  Yes,                                    !- Apply Tuesday
  Yes,                                    !- Apply Wednesday
  Yes,                                    !- Apply Thursday
  Yes,                                    !- Apply Friday
  Yes,                                    !- Apply Saturday
  DateRange,                              !- Date Specification Type
  1,                                      !- Start Month
  1,                                      !- Start Day
  12,                                     !- End Month
  31;                                     !- End Day

OS:Schedule:Day,
  {bd2cf873-1a40-4aa3-bef0-0db163d7d405}, !- Handle
  heating setpoint day,                   !- Name
  {616b56ec-e6d7-4c30-a35a-5c8ba897b93f}, !- Schedule Type Limits Name
  ,                                       !- Interpolate to Timestep
  24,                                     !- Hour 1
  0,                                      !- Minute 1
  20;                                     !- Value Until Time 1

OS:Schedule:Ruleset,
  {0fe7b2df-cc00-42c3-8852-98cde7cbb8a0}, !- Handle
  cooling setpoint,                       !- Name
  {616b56ec-e6d7-4c30-a35a-5c8ba897b93f}, !- Schedule Type Limits Name
  {89367ada-aca8-4896-a5e8-ea8449d82b60}; !- Default Day Schedule Name

OS:Schedule:Day,
  {89367ada-aca8-4896-a5e8-ea8449d82b60}, !- Handle
  cooling setpoint default day,           !- Name
  {616b56ec-e6d7-4c30-a35a-5c8ba897b93f}, !- Schedule Type Limits Name
  ,                                       !- Interpolate to Timestep
  24,                                     !- Hour 1
  0,                                      !- Minute 1
  0;                                      !- Value Until Time 1

OS:Schedule:Rule,
  {4690b78a-1fa8-4c16-a185-49245ad330e0}, !- Handle
  cooling setpoint allday rule,           !- Name
  {0fe7b2df-cc00-42c3-8852-98cde7cbb8a0}, !- Schedule Ruleset Name
  0,                                      !- Rule Order
  {9215e4ef-00b9-4d35-92db-8ec5136b2e37}, !- Day Schedule Name
  Yes,                                    !- Apply Sunday
  Yes,                                    !- Apply Monday
  Yes,                                    !- Apply Tuesday
  Yes,                                    !- Apply Wednesday
  Yes,                                    !- Apply Thursday
  Yes,                                    !- Apply Friday
  Yes,                                    !- Apply Saturday
  DateRange,                              !- Date Specification Type
  1,                                      !- Start Month
  1,                                      !- Start Day
  12,                                     !- End Month
  31;                                     !- End Day

OS:Schedule:Day,
  {9215e4ef-00b9-4d35-92db-8ec5136b2e37}, !- Handle
  cooling setpoint day,                   !- Name
  {616b56ec-e6d7-4c30-a35a-5c8ba897b93f}, !- Schedule Type Limits Name
  ,                                       !- Interpolate to Timestep
  24,                                     !- Hour 1
  0,                                      !- Minute 1
  25.5555555555556;                       !- Value Until Time 1

OS:ThermostatSetpoint:DualSetpoint,
  {5e27d9b1-fa72-4197-afda-b36bece51175}, !- Handle
  conditioned space temperature setpoint, !- Name
  {6459f662-4cc4-4547-89cf-772a537cbd5c}, !- Heating Setpoint Temperature Schedule Name
  {0fe7b2df-cc00-42c3-8852-98cde7cbb8a0}, !- Cooling Setpoint Temperature Schedule Name
  0;                                      !- Temperature Difference Between Cutout And Setpoint {deltaC}

OS:ScheduleTypeLimits,
  {616b56ec-e6d7-4c30-a35a-5c8ba897b93f}, !- Handle
  Temperature,                            !- Name
  ,                                       !- Lower Limit Value
  ,                                       !- Upper Limit Value
  Continuous,                             !- Numeric Type
  Temperature;                            !- Unit Type

OS:Surface,
  {bb5b813a-c1fb-488a-8a33-b2a1a66bb78b}, !- Handle
  Wall1,                                  !- Name
  Wall,                                   !- Surface Type
  {39a5e9bd-7fdc-42c3-91cf-400655b5088f}, !- Construction Name
  {bea04bae-f866-4c68-a829-a8f3e8a98753}, !- Space Name
  Outdoors,                               !- Outside Boundary Condition
  ,                                       !- Outside Boundary Condition Object
  SunExposed,                             !- Sun Exposure
  WindExposed,                            !- Wind Exposure
  ,                                       !- View Factor to Ground
  ,                                       !- Number of Vertices
  -4.95193308575712, 6.96193691424288, 0, !- X,Y,Z Vertex 1 {m}
  -4.95193308575712, 6.96193691424288, 2.4384, !- X,Y,Z Vertex 2 {m}
  6.96193691424288, 6.96193691424288, 2.4384, !- X,Y,Z Vertex 3 {m}
  6.96193691424288, 6.96193691424288, 0;  !- X,Y,Z Vertex 4 {m}

OS:AdditionalProperties,
  {3100db34-2fa9-4fcb-ae10-01b6c945d9da}, !- Handle
  {bb5b813a-c1fb-488a-8a33-b2a1a66bb78b}, !- Object Name
  Length,                                 !- Feature Name 1
  Double,                                 !- Feature Data Type 1
  39.087499999999999,                     !- Feature Value 1
  Azimuth,                                !- Feature Name 2
  Integer,                                !- Feature Data Type 2
  0,                                      !- Feature Value 2
  Tilt,                                   !- Feature Name 3
  Double,                                 !- Feature Data Type 3
  90,                                     !- Feature Value 3
  SurfaceType,                            !- Feature Name 4
  String,                                 !- Feature Data Type 4
  Wall;                                   !- Feature Value 4

OS:Material,
  {9245835e-cd06-47c9-ae89-978b39f74718}, !- Handle
  wood siding,                            !- Name
  Rough,                                  !- Roughness
  0.0254,                                 !- Thickness {m}
  0.1024175,                              !- Conductivity {W/m-K}
  544.68,                                 !- Density {kg/m3}
  1172.36,                                !- Specific Heat {J/kg-K}
  0.9,                                    !- Thermal Absorptance
  0.7,                                    !- Solar Absorptance
  0.7;                                    !- Visible Absorptance

OS:Material,
  {f0549a65-c6ee-4abd-8697-5db22d2c749c}, !- Handle
  osb sheathing 0.5 in.,                  !- Name
  Rough,                                  !- Roughness
  0.0127,                                 !- Thickness {m}
  0.1154577,                              !- Conductivity {W/m-K}
  512.64,                                 !- Density {kg/m3}
  1214.23,                                !- Specific Heat {J/kg-K}
  0.9,                                    !- Thermal Absorptance
  0.7,                                    !- Solar Absorptance
  0.7;                                    !- Visible Absorptance

OS:Material,
  {7ec922b7-d1bf-4124-b4b6-b68a65c324b7}, !- Handle
  wall stud and cavity,                   !- Name
  Rough,                                  !- Roughness
  0.1397,                                 !- Thickness {m}
  0.0929021674204099,                     !- Conductivity {W/m-K}
  139.0536,                               !- Density {kg/m3}
  1170.23755760369,                       !- Specific Heat {J/kg-K}
  0.9,                                    !- Thermal Absorptance
  0.7,                                    !- Solar Absorptance
  0.7;                                    !- Visible Absorptance

OS:Material,
  {e4fd0323-ab93-479c-ac1a-e10678bba8ca}, !- Handle
  gypsum board,                           !- Name
  Rough,                                  !- Roughness
  0.0127,                                 !- Thickness {m}
  0.1602906,                              !- Conductivity {W/m-K}
  801,                                    !- Density {kg/m3}
  837.4,                                  !- Specific Heat {J/kg-K}
  0.9,                                    !- Thermal Absorptance
  0.6,                                    !- Solar Absorptance
  0.6;                                    !- Visible Absorptance

OS:Construction,
  {39a5e9bd-7fdc-42c3-91cf-400655b5088f}, !- Handle
  Wall1 construction,                     !- Name
  ,                                       !- Surface Rendering Name
  {9245835e-cd06-47c9-ae89-978b39f74718}, !- Layer 1
  {f0549a65-c6ee-4abd-8697-5db22d2c749c}, !- Layer 2
  {7ec922b7-d1bf-4124-b4b6-b68a65c324b7}, !- Layer 3
  {e4fd0323-ab93-479c-ac1a-e10678bba8ca}; !- Layer 4

OS:Surface,
  {40210742-f490-4571-98f5-c0d324b2e99d}, !- Handle
  Wall2,                                  !- Name
  Wall,                                   !- Surface Type
  {f52814da-a612-4285-b72b-59da0c5762c9}, !- Construction Name
  {bea04bae-f866-4c68-a829-a8f3e8a98753}, !- Space Name
  Outdoors,                               !- Outside Boundary Condition
  ,                                       !- Outside Boundary Condition Object
  SunExposed,                             !- Sun Exposure
  WindExposed,                            !- Wind Exposure
  ,                                       !- View Factor to Ground
  ,                                       !- Number of Vertices
  6.96193691424288, -1.00690691424288, 0, !- X,Y,Z Vertex 1 {m}
  6.96193691424288, -1.00690691424288, 2.4384, !- X,Y,Z Vertex 2 {m}
  6.96193691424288, -6.96193691424288, 2.4384, !- X,Y,Z Vertex 3 {m}
  6.96193691424288, -6.96193691424288, 0; !- X,Y,Z Vertex 4 {m}

OS:AdditionalProperties,
  {03278596-9557-42a5-b7ea-2ab4ac79faa9}, !- Handle
  {40210742-f490-4571-98f5-c0d324b2e99d}, !- Object Name
  Length,                                 !- Feature Name 1
  Double,                                 !- Feature Data Type 1
  19.537500000000001,                     !- Feature Value 1
  Azimuth,                                !- Feature Name 2
  Integer,                                !- Feature Data Type 2
  90,                                     !- Feature Value 2
  Tilt,                                   !- Feature Name 3
  Double,                                 !- Feature Data Type 3
  90,                                     !- Feature Value 3
  SurfaceType,                            !- Feature Name 4
  String,                                 !- Feature Data Type 4
  Wall;                                   !- Feature Value 4

OS:Construction,
  {f52814da-a612-4285-b72b-59da0c5762c9}, !- Handle
  Wall2 construction,                     !- Name
  ,                                       !- Surface Rendering Name
  {9245835e-cd06-47c9-ae89-978b39f74718}, !- Layer 1
  {f0549a65-c6ee-4abd-8697-5db22d2c749c}, !- Layer 2
  {7ec922b7-d1bf-4124-b4b6-b68a65c324b7}, !- Layer 3
  {e4fd0323-ab93-479c-ac1a-e10678bba8ca}; !- Layer 4

OS:Surface,
  {9ac8de50-ce87-46df-a123-ef8e7a0d22b5}, !- Handle
  Wall3,                                  !- Name
  Wall,                                   !- Surface Type
  {8652b684-b58d-4119-aff5-e87ee231a2e0}, !- Construction Name
  {bea04bae-f866-4c68-a829-a8f3e8a98753}, !- Space Name
  Outdoors,                               !- Outside Boundary Condition
  ,                                       !- Outside Boundary Condition Object
  SunExposed,                             !- Sun Exposure
  WindExposed,                            !- Wind Exposure
  ,                                       !- View Factor to Ground
  ,                                       !- Number of Vertices
  6.03290651424288, -6.96193691424288, 0, !- X,Y,Z Vertex 1 {m}
  6.03290651424288, -6.96193691424288, 2.4384, !- X,Y,Z Vertex 2 {m}
  -5.11896348575712, -6.96193691424288, 2.4384, !- X,Y,Z Vertex 3 {m}
  -5.11896348575712, -6.96193691424288, 0; !- X,Y,Z Vertex 4 {m}

OS:AdditionalProperties,
  {d1df56b7-0f05-49c1-b379-562b5ab55db9}, !- Handle
  {9ac8de50-ce87-46df-a123-ef8e7a0d22b5}, !- Object Name
  Length,                                 !- Feature Name 1
  Double,                                 !- Feature Data Type 1
  36.587499999999999,                     !- Feature Value 1
  Azimuth,                                !- Feature Name 2
  Integer,                                !- Feature Data Type 2
  180,                                    !- Feature Value 2
  Tilt,                                   !- Feature Name 3
  Double,                                 !- Feature Data Type 3
  90,                                     !- Feature Value 3
  SurfaceType,                            !- Feature Name 4
  String,                                 !- Feature Data Type 4
  Wall;                                   !- Feature Value 4

OS:Construction,
  {8652b684-b58d-4119-aff5-e87ee231a2e0}, !- Handle
  Wall3 construction,                     !- Name
  ,                                       !- Surface Rendering Name
  {9245835e-cd06-47c9-ae89-978b39f74718}, !- Layer 1
  {f0549a65-c6ee-4abd-8697-5db22d2c749c}, !- Layer 2
  {7ec922b7-d1bf-4124-b4b6-b68a65c324b7}, !- Layer 3
  {e4fd0323-ab93-479c-ac1a-e10678bba8ca}; !- Layer 4

OS:Surface,
  {fc30374b-cdce-4e47-9813-4116848a009b}, !- Handle
  Wall4,                                  !- Name
  Wall,                                   !- Surface Type
  {27b1b508-613d-4339-9f85-fff39faaf072}, !- Construction Name
  {bea04bae-f866-4c68-a829-a8f3e8a98753}, !- Space Name
  Outdoors,                               !- Outside Boundary Condition
  ,                                       !- Outside Boundary Condition Object
  SunExposed,                             !- Sun Exposure
  WindExposed,                            !- Wind Exposure
  ,                                       !- View Factor to Ground
  ,                                       !- Number of Vertices
  -6.96193691424288, 1.00690691424288, 0, !- X,Y,Z Vertex 1 {m}
  -6.96193691424288, 1.00690691424288, 2.4384, !- X,Y,Z Vertex 2 {m}
  -6.96193691424288, 6.96193691424288, 2.4384, !- X,Y,Z Vertex 3 {m}
  -6.96193691424288, 6.96193691424288, 0; !- X,Y,Z Vertex 4 {m}

OS:AdditionalProperties,
  {bff2facf-4982-4552-b641-13e4433912de}, !- Handle
  {fc30374b-cdce-4e47-9813-4116848a009b}, !- Object Name