
OS:Version,
  {f87a15d1-dbba-468e-ac9d-d807db4f5918}, !- Handle
  3.9.0;                                  !- Version Identifier

OS:SimulationControl,
  {9f07045e-55de-4616-a0d3-b044e13d44a0}, !- Handle
  ,                                       !- Do Zone Sizing Calculation
  ,                                       !- Do System Sizing Calculation
  ,                                       !- Do Plant Sizing Calculation
  No;                                     !- Run Simulation for Sizing Periods

OS:Timestep,
  {022f6a69-a36e-4003-9806-eb00f00008bc}, !- Handle
  1;                                      !- Number of Timesteps per Hour

OS:ShadowCalculation,
  {54483892-6308-4b05-9165-54b32348b392}, !- Handle
  PolygonClipping,                        !- Shading Calculation Method
  ,                                       !- Shading Calculation Update Frequency Method
  20,                                     !- Shading Calculation Update Frequency
  200,                                    !- Maximum Figures in Shadow Overlap Calculations
  ,                                       !- Polygon Clipping Algorithm
  512,                                    !- Pixel Counting Resolution
  ,                                       !- Sky Diffuse Modeling Algorithm
  No,                                     !- Output External Shading Calculation Results
  No,                                     !- Disable Self-Shading Within Shading Zone Groups
  No;                                     !- Disable Self-Shading From Shading Zone Groups to Other Zones

OS:SurfaceConvectionAlgorithm:Outside,
  {69f4b925-03fb-4ed1-9126-23380348b956}, !- Handle
  DOE-2;                                  !- Algorithm

OS:SurfaceConvectionAlgorithm:Inside,
  {db67cf73-a198-4f08-b369-5100e2db143e}, !- Handle
  TARP;                                   !- Algorithm

OS:ZoneCapacitanceMultiplier:ResearchSpecial,
  {083086c1-74a2-4657-bdaa-de00e8fd35f7}, !- Handle
  7,                                      !- Temperature Capacity Multiplier
  15,                                     !- Humidity Capacity Multiplier
  ;                                       !- Carbon Dioxide Capacity Multiplier

OS:ConvergenceLimits,
  {69ea827b-0ea7-4b25-85b6-ab442fa6f8a8}, !- Handle
  0;                                      !- Minimum System Timestep {minutes}

OS:RunPeriod,
  {8a57cc97-31f4-4ee1-9498-8a9b5fa57db3}, !- Handle
  Run Period 1,                           !- Name
  1,                                      !- Begin Month
  1,                                      !- Begin Day of Month
  12,                                     !- End Month
  31,                                     !- End Day of Month
  ,                                       !- Use Weather File Holidays and Special Days
  ,                                       !- Use Weather File Daylight Saving Period
  ,                                       !- Apply Weekend Holiday Rule
  ,                                       !- Use Weather File Rain Indicators
  ,                                       !- Use Weather File Snow Indicators
  ;                                       !- Number of Times Runperiod to be Repeated

OS:PerformancePrecisionTradeoffs,
  {31810998-1df2-4b4a-8c0c-7d048cfe6701}, !- Handle
  ,                                       !- Use Coil Direct Solutions
  CarrollMRT;                             !- Zone Radiant Exchange Algorithm

OS:WeatherFile,
  {3a1f8da5-11fe-4fbb-98f4-0d7fb391461c}, !- Handle
  Buffalo Niagara Intl Ap,                !- City
  NY,                                     !- State Province Region
  USA,                                    !- Country
  TMY3,                                   !- Data Source
  725280,                                 !- WMO Number
  42.93,                                  !- Latitude {deg}
  -78.73,                                 !- Longitude {deg}
  -5,                                     !- Time Zone {hr}
  215,                                    !- Elevation {m}
  /Users/nmoore/github/urbanopt-example-geojson-project/example_project/weather/USA_NY_Buffalo-Greater.Buffalo.Intl.AP.725280_TMY3.epw, !- Url
  6B50E0FF,                               !- Checksum
  ,                                       !- Start Date Actual Year
  Sunday;                                 !- Start Day of Week

OS:YearDescription,
  {7d9a8c5b-20b2-4c47-95c0-0f19c0d75ac8}, !- Handle
  2007,                                   !- Calendar Year
  ,                                       !- Day of Week for Start Day
  ;                                       !- Is Leap Year

OS:Site,
  {90512b6f-a0f2-4f28-909a-7837948bd2ce}, !- Handle
  Buffalo Niagara Intl Ap_NY,             !- Name
  42.93,                                  !- Latitude {deg}
  -78.73,                                 !- Longitude {deg}
  -5,                                     !- Time Zone {hr}
  215,                                    !- Elevation {m}
  Suburbs,                                !- Terrain
  Yes;                                    !- Keep Site Location Information

OS:RunPeriodControl:DaylightSavingTime,
  {7cab5a42-3447-4d7f-bfcd-e1b2a29ec9b0}, !- Handle
  Mar 12,                                 !- Start Date
  Nov 5;                                  !- End Date

OS:Site:GroundTemperature:Shallow,
  {f27d8a77-582e-4d29-bd9c-4fa11429333a}, !- Handle
  4.30207395723828,                       !- January Surface Ground Temperature {C}
  2.29327249652502,                       !- February Surface Ground Temperature {C}
  2.13240047156047,                       !- March Surface Ground Temperature {C}
  3.08567940719286,                       !- April Surface Ground Temperature {C}
  6.91256312497526,                       !- May Surface Ground Temperature {C}
  10.7216195949507,                       !- June Surface Ground Temperature {C}
  14.0238679822574,                       !- July Surface Ground Temperature {C}
  16.1157611184724,                       !- August Surface Ground Temperature {C}
  16.2934789303462,                       !- September Surface Ground Temperature {C}
  14.5920754632847,                       !- October Surface Ground Temperature {C}
  11.374036348653,                        !- November Surface Ground Temperature {C}
  7.68182621661674;                       !- December Surface Ground Temperature {C}

OS:ThermalZone,
  {43b92a87-2b3a-4b44-8ebb-bad42721458f}, !- Handle
  conditioned space,                      !- Name
  1,                                      !- Multiplier
  ,                                       !- Ceiling Height {m}
  346.03186535424,                        !- Volume {m3}
  ,                                       !- Floor Area {m2}
  ,                                       !- Zone Inside Convection Algorithm
  ,                                       !- Zone Outside Convection Algorithm
  ,                                       !- Zone Conditioning Equipment List Name
  {54a61e9c-c0f8-4c0b-a495-69a721e67d34}, !- Zone Air Inlet Port List
  {40a52c95-dfa1-478e-93b1-7737a77ddbfd}, !- Zone Air Exhaust Port List
  {e955adf0-fd38-4206-a408-de3cd211d75d}, !- Zone Air Node Name
  {f7d1aa51-2dfa-46bb-a72d-d63fcdc4e27f}, !- Zone Return Air Port List
  ,                                       !- Primary Daylighting Control Name
  ,                                       !- Fraction of Zone Controlled by Primary Daylighting Control
  ,                                       !- Secondary Daylighting Control Name
  ,                                       !- Fraction of Zone Controlled by Secondary Daylighting Control
  ,                                       !- Illuminance Map Name
  ,                                       !- Group Rendering Name
  {3f2d93d5-899e-4d2e-adb5-13194aa72422}, !- Thermostat Name
  No;                                     !- Use Ideal Air Loads

OS:Node,
  {8dd431bb-69e2-466a-b02e-a0098a02f527}, !- Handle
  Node 1,                                 !- Name
  {e955adf0-fd38-4206-a408-de3cd211d75d}, !- Inlet Port
  ;                                       !- Outlet Port

OS:Connection,
  {e955adf0-fd38-4206-a408-de3cd211d75d}, !- Handle
  {43b92a87-2b3a-4b44-8ebb-bad42721458f}, !- Source Object
  11,                                     !- Outlet Port
  {8dd431bb-69e2-466a-b02e-a0098a02f527}, !- Target Object
  2;                                      !- Inlet Port

OS:PortList,
  {54a61e9c-c0f8-4c0b-a495-69a721e67d34}, !- Handle
  {43b92a87-2b3a-4b44-8ebb-bad42721458f}, !- HVAC Component
  {f5206973-df56-4bbe-a1b3-92b89c2e09f7}; !- Port 1

OS:PortList,
  {40a52c95-dfa1-478e-93b1-7737a77ddbfd}, !- Handle
  {43b92a87-2b3a-4b44-8ebb-bad42721458f}; !- HVAC Component

OS:PortList,
  {f7d1aa51-2dfa-46bb-a72d-d63fcdc4e27f}, !- Handle
  {43b92a87-2b3a-4b44-8ebb-bad42721458f}, !- HVAC Component
  {83a3eba5-dda1-4f51-a850-8a1eb8914ae4}; !- Port 1

OS:Sizing:Zone,
  {69f0b0ec-1437-4acb-801f-7d3c7ed33a4a}, !- Handle
  {43b92a87-2b3a-4b44-8ebb-bad42721458f}, !- Zone or ZoneList Name
  SupplyAirTemperature,                   !- Zone Cooling Design Supply Air Temperature Input Method
  14,                                     !- Zone Cooling Design Supply Air Temperature {C}
  11.11,                                  !- Zone Cooling Design Supply Air Temperature Difference {deltaC}
  SupplyAirTemperature,                   !- Zone Heating Design Supply Air Temperature Input Method
  40,                                     !- Zone Heating Design Supply Air Temperature {C}
  11.11,                                  !- Zone Heating Design Supply Air Temperature Difference {deltaC}
  0.0085,                                 !- Zone Cooling Design Supply Air Humidity Ratio {kg-H2O/kg-air}
  0.008,                                  !- Zone Heating Design Supply Air Humidity Ratio {kg-H2O/kg-air}
  ,                                       !- Zone Heating Sizing Factor
  ,                                       !- Zone Cooling Sizing Factor
  DesignDay,                              !- Cooling Design Air Flow Method
  ,                                       !- Cooling Design Air Flow Rate {m3/s}
  ,                                       !- Cooling Minimum Air Flow per Zone Floor Area {m3/s-m2}
  ,                                       !- Cooling Minimum Air Flow {m3/s}
  ,                                       !- Cooling Minimum Air Flow Fraction
  DesignDay,                              !- Heating Design Air Flow Method
  ,                                       !- Heating Design Air Flow Rate {m3/s}
  ,                                       !- Heating Maximum Air Flow per Zone Floor Area {m3/s-m2}
  ,                                       !- Heating Maximum Air Flow {m3/s}
  ,                                       !- Heating Maximum Air Flow Fraction
  No,                                     !- Account for Dedicated Outdoor Air System
  NeutralSupplyAir,                       !- Dedicated Outdoor Air System Control Strategy
  autosize,                               !- Dedicated Outdoor Air Low Setpoint Temperature for Design {C}
  autosize,                               !- Dedicated Outdoor Air High Setpoint Temperature for Design {C}
  Sensible Load Only No Latent Load,      !- Zone Load Sizing Method
  HumidityRatioDifference,                !- Zone Latent Cooling Design Supply Air Humidity Ratio Input Method
  ,                                       !- Zone Dehumidification Design Supply Air Humidity Ratio {kgWater/kgDryAir}
  0.005,                                  !- Zone Cooling Design Supply Air Humidity Ratio Difference {kgWater/kgDryAir}
  HumidityRatioDifference,                !- Zone Latent Heating Design Supply Air Humidity Ratio Input Method
  ,                                       !- Zone Humidification Design Supply Air Humidity Ratio {kgWater/kgDryAir}
  0.005,                                  !- Zone Humidification Design Supply Air Humidity Ratio Difference {kgWater/kgDryAir}
  ,                                       !- Zone Humidistat Dehumidification Set Point Schedule Name
  ,                                       !- Zone Humidistat Humidification Set Point Schedule Name
  ,                                       !- Design Zone Air Distribution Effectiveness in Cooling Mode
  ,                                       !- Design Zone Air Distribution Effectiveness in Heating Mode
  ,                                       !- Design Zone Secondary Recirculation Fraction {dimensionless}
  ,                                       !- Design Minimum Zone Ventilation Efficiency {dimensionless}
  Coincident;                             !- Sizing Option

OS:ZoneHVAC:EquipmentList,
  {5443e817-36b9-428b-85fe-839e32d96cb3}, !- Handle
  Zone HVAC Equipment List 1,             !- Name
  {43b92a87-2b3a-4b44-8ebb-bad42721458f}, !- Thermal Zone
  ,                                       !- Load Distribution Scheme
  {00428dab-3626-42dd-91bc-9b3c90376516}, !- Zone Equipment 1
  1,                                      !- Zone Equipment Cooling Sequence 1
  1,                                      !- Zone Equipment Heating or No-Load Sequence 1
  {79db22c6-c046-437e-9d4f-04bed508bf0e}, !- Zone Equipment Sequential Cooling Fraction Schedule Name 1
  {89bb8d29-df50-4966-b82b-a2e6725976f3}; !- Zone Equipment Sequential Heating Fraction Schedule Name 1

OS:AdditionalProperties,
  {7e97510b-cafd-42ec-82d5-643216925160}, !- Handle
  {43b92a87-2b3a-4b44-8ebb-bad42721458f}, !- Object Name
  ObjectType,                             !- Feature Name 1
  String,                                 !- Feature Data Type 1
  conditioned space;                      !- Feature Value 1

OS:Space,
  {8eb33881-cf2f-4e7b-bb55-3c8b1666a3d5}, !- Handle
  conditioned space 1,                    !- Name
  ,                                       !- Space Type Name
  ,                                       !- Default Construction Set Name
  ,                                       !- Default Schedule Set Name
  ,                                       !- Direction of Relative North {deg}
  ,                                       !- X Origin {m}
  ,                                       !- Y Origin {m}
  ,                                       !- Z Origin {m}
  ,                                       !- Building Story Name
  {43b92a87-2b3a-4b44-8ebb-bad42721458f}, !- Thermal Zone Name
  ,                                       !- Part of Total Floor Area
  ,                                       !- Design Specification Outdoor Air Object Name
  ,                                       !- Building Unit Name
  346.03186535424;                        !- Volume {m3}

OS:Schedule:Ruleset,
  {fdec5d8b-54f0-45ba-85d1-d2a4aa52128d}, !- Handle
  heating setpoint,                       !- Name
  {0a699bf4-f04d-40d6-b3dc-ecb4993ac24d}, !- Schedule Type Limits Name
  {3f7c352b-2039-495b-876c-5bbe12067dd0}; !- Default Day Schedule Name

OS:Schedule:Day,
  {3f7c352b-2039-495b-876c-5bbe12067dd0}, !- Handle
  heating setpoint default day,           !- Name
  {0a699bf4-f04d-40d6-b3dc-ecb4993ac24d}, !- Schedule Type Limits Name
  ,                                       !- Interpolate to Timestep
  24,                                     !- Hour 1
  0,                                      !- Minute 1
  0;                                      !- Value Until Time 1

OS:Schedule:Rule,
  {34cca532-3fd7-4569-81f4-1d2fc788be58}, !- Handle
  heating setpoint allday rule,           !- Name
  {fdec5d8b-54f0-45ba-85d1-d2a4aa52128d}, !- Schedule Ruleset Name
  0,                                      !- Rule Order
  {6d1016ad-c3ab-4c4a-ac81-590cdf54d054}, !- Day Schedule Name
  Yes,                                    !- Apply Sunday
  Yes,                                    !- Apply Monday
  Yes,                                    !- Apply Tuesday
  Yes,                                    !- Apply Wednesday
  Yes,                                    !- Apply Thursday
  Yes,                                    !- Apply Friday
  Yes,                                    !- Apply Saturday
  DateRange,                              !- Date Specification Type
  1,                                      !- Start Month
  1,                                      !- Start Day
  12,                                     !- End Month
  31;                                     !- End Day

OS:Schedule:Day,
  {6d1016ad-c3ab-4c4a-ac81-590cdf54d054}, !- Handle
  heating setpoint day,                   !- Name
  {0a699bf4-f04d-40d6-b3dc-ecb4993ac24d}, !- Schedule Type Limits Name
  ,                                       !- Interpolate to Timestep
  24,                                     !- Hour 1
  0,                                      !- Minute 1
  20;                                     !- Value Until Time 1

OS:Schedule:Ruleset,
  {3fd6f254-d8c1-4aac-838b-b579ef89567c}, !- Handle
  cooling setpoint,                       !- Name
  {0a699bf4-f04d-40d6-b3dc-ecb4993ac24d}, !- Schedule Type Limits Name
  {66fc6f61-eadf-4278-98ae-ac3575bc972b}; !- Default Day Schedule Name

OS:Schedule:Day,
  {66fc6f61-eadf-4278-98ae-ac3575bc972b}, !- Handle
  cooling setpoint default day,           !- Name
  {0a699bf4-f04d-40d6-b3dc-ecb4993ac24d}, !- Schedule Type Limits Name
  ,                                       !- Interpolate to Timestep
  24,                                     !- Hour 1
  0,                                      !- Minute 1
  0;                                      !- Value Until Time 1

OS:Schedule:Rule,
  {0455eaf8-1fa5-4bcb-b159-75f4b4b3c3a5}, !- Handle
  cooling setpoint allday rule,           !- Name
  {3fd6f254-d8c1-4aac-838b-b579ef89567c}, !- Schedule Ruleset Name
  0,                                      !- Rule Order
  {a84910ce-ae8c-406a-9677-dc26c2380097}, !- Day Schedule Name
  Yes,                                    !- Apply Sunday
  Yes,                                    !- Apply Monday
  Yes,                                    !- Apply Tuesday
  Yes,                                    !- Apply Wednesday
  Yes,                                    !- Apply Thursday
  Yes,                                    !- Apply Friday
  Yes,                                    !- Apply Saturday
  DateRange,                              !- Date Specification Type
  1,                                      !- Start Month
  1,                                      !- Start Day
  12,                                     !- End Month
  31;                                     !- End Day

OS:Schedule:Day,
  {a84910ce-ae8c-406a-9677-dc26c2380097}, !- Handle
  cooling setpoint day,                   !- Name
  {0a699bf4-f04d-40d6-b3dc-ecb4993ac24d}, !- Schedule Type Limits Name
  ,                                       !- Interpolate to Timestep
  24,                                     !- Hour 1
  0,                                      !- Minute 1
  25.5555555555556;                       !- Value Until Time 1

OS:ThermostatSetpoint:DualSetpoint,
  {3f2d93d5-899e-4d2e-adb5-13194aa72422}, !- Handle
  conditioned space temperature setpoint, !- Name
  {fdec5d8b-54f0-45ba-85d1-d2a4aa52128d}, !- Heating Setpoint Temperature Schedule Name
  {3fd6f254-d8c1-4aac-838b-b579ef89567c}, !- Cooling Setpoint Temperature Schedule Name
  0;                                      !- Temperature Difference Between Cutout And Setpoint {deltaC}

OS:ScheduleTypeLimits,
  {0a699bf4-f04d-40d6-b3dc-ecb4993ac24d}, !- Handle
  Temperature,                            !- Name
  ,                                       !- Lower Limit Value
  ,                                       !- Upper Limit Value
  Continuous,                             !- Numeric Type
  Temperature;                            !- Unit Type

OS:Surface,
  {1200982e-f3de-48f4-a023-c199a8191112}, !- Handle
  Roof1,                                  !- Name
  RoofCeiling,                            !- Surface Type
  {1e54f087-721f-4478-916c-d7130a03caf2}, !- Construction Name
  {38f4a7c1-4fd2-4207-a8eb-bed7fd62073e}, !- Space Name
  Outdoors,                               !- Outside Boundary Condition
  ,                                       !- Outside Boundary Condition Object
  SunExposed,                             !- Sun Exposure
  WindExposed,                            !- Wind Exposure
  ,                                       !- View Factor to Ground
  ,                                       !- Number of Vertices
  1.41860524590607, 10.3253389825797, 3.048, !- X,Y,Z Vertex 1 {m}
  1.41860524590607, 2.35891414550252, 7.03121241853859, !- X,Y,Z Vertex 2 {m}
  10.3253389825797, 2.35891414550251, 7.03121241853859, !- X,Y,Z Vertex 3 {m}
  10.3253389825797, 10.3253389825797, 3.048; !- X,Y,Z Vertex 4 {m}

OS:AdditionalProperties,
  {0919e712-9ca1-458a-b164-ca5c756070d1}, !- Handle
  {1200982e-f3de-48f4-a023-c199a8191112}, !- Object Name
  Length,                                 !- Feature Name 1
  Double,                                 !- Feature Data Type 1
  29.221567377538118,                     !- Feature Value 1
  Width,                                  !- Feature Name 2
  Double,                                 !- Feature Data Type 2
  29.221567377538118,                     !- Feature Value 2
  Azimuth,                                !- Feature Name 3
  Integer,                                !- Feature Data Type 3
  0,                                      !- Feature Value 3
  Tilt,                                   !- Feature Name 4
  Double,                                 !- Feature Data Type 4
  0.5,                                    !- Feature Value 4
  SurfaceType,                            !- Feature Name 5
  String,                                 !- Feature Data Type 5
  Roof;                                   !- Feature Value 5

OS:ThermalZone,
  {ddfb7890-e96f-4e48-b8fa-9c73cba58a8c}, !- Handle
  attic - vented,                         !- Name
  1,                                      !- Multiplier
  ,                                       !- Ceiling Height {m}
  126.002877704413,                       !- Volume {m3}
  ,                                       !- Floor Area {m2}
  ,                                       !- Zone Inside Convection Algorithm
  ,                                       !- Zone Outside Convection Algorithm
  ,                                       !- Zone Conditioning Equipment List Name
  {e0cab78b-1567-4eeb-96b6-54f22cc15e48}, !- Zone Air Inlet Port List
  {dbc4b74c-77c5-4cc7-b26e-61778462be03}, !- Zone Air Exhaust Port List
  {a2cbe556-c477-479e-889b-f085d3b031ab}, !- Zone Air Node Name
  {5aeafb84-6b86-437d-97ec-f82e65d506df}, !- Zone Return Air Port List
  ,                                       !- Primary Daylighting Control Name
  ,                                       !- Fraction of Zone Controlled by Primary Daylighting Control
  ,                                       !- Secondary Daylighting Control Name
  ,                                       !- Fraction of Zone Controlled by Secondary Daylighting Control
  ,                                       !- Illuminance Map Name
  ,                                       !- Group Rendering Name
  ,                                       !- Thermostat Name
  No;                                     !- Use Ideal Air Loads

OS:Node,
  {afe65b85-ebdb-489d-aadb-2ec325e1f1c8}, !- Handle
  Node 2,                                 !- Name
  {a2cbe556-c477-479e-889b-f085d3b031ab}, !- Inlet Port
  ;                                       !- Outlet Port

OS:Connection,
  {a2cbe556-c477-479e-889b-f085d3b031ab}, !- Handle
  {ddfb7890-e96f-4e48-b8fa-9c73cba58a8c}, !- Source Object
  11,                                     !- Outlet Port
  {afe65b85-ebdb-489d-aadb-2ec325e1f1c8}, !- Target Object
  2;                                      !- Inlet Port

OS:PortList,
  {e0cab78b-1567-4eeb-96b6-54f22cc15e48}, !- Handle
  {ddfb7890-e96f-4e48-b8fa-9c73cba58a8c}; !- HVAC Component

OS:PortList,
  {dbc4b74c-77c5-4cc7-b26e-61778462be03}, !- Handle
  {ddfb7890-e96f-4e48-b8fa-9c73cba58a8c}; !- HVAC Component

OS:PortList,
  {5aeafb84-6b86-437d-97ec-f82e65d506df}, !- Handle
  {ddfb7890-e96f-4e48-b8fa-9c73cba58a8c}; !- HVAC Component

OS:Sizing:Zone,
  {fef41895-f9a7-49b3-8317-0546b0ba4471}, !- Handle
  {ddfb7890-e96f-4e48-b8fa-9c73cba58a8c}, !- Zone or ZoneList Name
  SupplyAirTemperature,                   !- Zone Cooling Design Supply Air Temperature Input Method
  14,                                     !- Zone Cooling Design Supply Air Temperature {C}
  11.11,                                  !- Zone Cooling Design Supply Air Temperature Difference {deltaC}
  SupplyAirTemperature,                   !- Zone Heating Design Supply Air Temperature Input Method
  40,                                     !- Zone Heating Design Supply Air Temperature {C}
  11.11,                                  !- Zone Heating Design Supply Air Temperature Difference {deltaC}
  0.0085,                                 !- Zone Cooling Design Supply Air Humidity Ratio {kg-H2O/kg-air}
  0.008,                                  !- Zone Heating Design Supply Air Humidity Ratio {kg-H2O/kg-air}
  ,                                       !- Zone Heating Sizing Factor
  ,                                       !- Zone Cooling Sizing Factor
  DesignDay,                              !- Cooling Design Air Flow Method
  ,                                       !- Cooling Design Air Flow Rate {m3/s}
  ,                                       !- Cooling Minimum Air Flow per Zone Floor Area {m3/s-m2}
  ,                                       !- Cooling Minimum Air Flow {m3/s}
  ,                                       !- Cooling Minimum Air Flow Fraction
  DesignDay,                              !- Heating Design Air Flow Method
  ,                                       !- Heating Design Air Flow Rate {m3/s}
  ,                                       !- Heating Maximum Air Flow per Zone Floor Area {m3/s-m2}
  ,                                       !- Heating Maximum Air Flow {m3/s}
  ,                                       !- Heating Maximum Air Flow Fraction
  No,                                     !- Account for Dedicated Outdoor Air System
  NeutralSupplyAir,                       !- Dedicated Outdoor Air System Control Strategy
  autosize,                               !- Dedicated Outdoor Air Low Setpoint Temperature for Design {C}
  autosize,                               !- Dedicated Outdoor Air High Setpoint Temperature for Design {C}
  Sensible Load Only No Latent Load,      !- Zone Load Sizing Method
  HumidityRatioDifference,                !- Zone Latent Cooling Design Supply Air Humidity Ratio Input Method
  ,                                       !- Zone Dehumidification Design Supply Air Humidity Ratio {kgWater/kgDryAir}
  0.005,                                  !- Zone Cooling Design Supply Air Humidity Ratio Difference {kgWater/kgDryAir}
  HumidityRatioDifference,                !- Zone Latent Heating Design Supply Air Humidity Ratio Input Method
  ,                                       !- Zone Humidification Design Supply Air Humidity Ratio {kgWater/kgDryAir}
  0.005,                                  !- Zone Humidification Design Supply Air Humidity Ratio Difference {kgWater/kgDryAir}
  ,                                       !- Zone Humidistat Dehumidification Set Point Schedule Name
  ,                                       !- Zone Humidistat Humidification Set Point Schedule Name
  ,                                       !- Design Zone Air Distribution Effectiveness in Cooling Mode
  ,                                       !- Design Zone Air Distribution Effectiveness in Heating Mode
  ,                                       !- Design Zone Secondary Recirculation Fraction {dimensionless}
  ,                                       !- Design Minimum Zone Ventilation Efficiency {dimensionless}
  Coincident;                             !- Sizing Option

OS:ZoneHVAC:EquipmentList,
  {5ec54b74-5b96-49f3-b4aa-11294043788b}, !- Handle
  Zone HVAC Equipment List 2,             !- Name
  {ddfb7890-e96f-4e48-b8fa-9c73cba58a8c}; !- Thermal Zone

OS:AdditionalProperties,
  {70b5275c-9558-4275-9bec-c9f9a55180f3}, !- Handle
  {ddfb7890-e96f-4e48-b8fa-9c73cba58a8c}, !- Object Name
  ObjectType,                             !- Feature Name 1
  String,                                 !- Feature Data Type 1
  attic - vented;                         !- Feature Value 1

OS:Space,
  {38f4a7c1-4fd2-4207-a8eb-bed7fd62073e}, !- Handle
  attic - vented 1,                       !- Name
  ,                                       !- Space Type Name
  ,                                       !- Default Construction Set Name
  ,                                       !- Default Schedule Set Name
  ,                                       !- Direction of Relative North {deg}
  ,                                       !- X Origin {m}
  ,                                       !- Y Origin {m}
  ,                                       !- Z Origin {m}
  ,                                       !- Building Story Name
  {ddfb7890-e96f-4e48-b8fa-9c73cba58a8c}, !- Thermal Zone Name
  ,                                       !- Part of Total Floor Area
  ,                                       !- Design Specification Outdoor Air Object Name
  ,                                       !- Building Unit Name
  126.002877704413;                       !- Volume {m3}

OS:Material,
  {bd6b7a59-a754-4e7b-966c-cddf0c2af6b4}, !- Handle
  asphalt or fiberglass shingles,         !- Name
  Rough,                                  !- Roughness
  0.00635,                                !- Thickness {m}
  0.162714,                               !- Conductivity {W/m-K}
  1121.4,                                 !- Density {kg/m3}
  1465.45,                                !- Specific Heat {J/kg-K}
  0.9,                                    !- Thermal Absorptance
  0.85,                                   !- Solar Absorptance