
OS:Version,
  {169e7dbe-a201-4d25-a0ee-bb8f4c756c6e}, !- Handle
  3.10.0;                                 !- Version Identifier

OS:SimulationControl,
  {690e1802-1777-4d73-8a41-6634ed1b0056}, !- Handle
  ,                                       !- Do Zone Sizing Calculation
  ,                                       !- Do System Sizing Calculation
  ,                                       !- Do Plant Sizing Calculation
  No;                                     !- Run Simulation for Sizing Periods

OS:Timestep,
  {84ff7b05-d270-499e-8f5a-1dddaf8c7c4e}, !- Handle
  1;                                      !- Number of Timesteps per Hour

OS:ShadowCalculation,
  {bc92919f-5399-4f13-bab3-1bf00edcd094}, !- Handle
  PolygonClipping,                        !- Shading Calculation Method
  ,                                       !- Shading Calculation Update Frequency Method
  20,                                     !- Shading Calculation Update Frequency
  200,                                    !- Maximum Figures in Shadow Overlap Calculations
  ,                                       !- Polygon Clipping Algorithm
  512,                                    !- Pixel Counting Resolution
  ,                                       !- Sky Diffuse Modeling Algorithm
  No,                                     !- Output External Shading Calculation Results
  No,                                     !- Disable Self-Shading Within Shading Zone Groups
  No;                                     !- Disable Self-Shading From Shading Zone Groups to Other Zones

OS:SurfaceConvectionAlgorithm:Outside,
  {f1190693-d4f7-4b8a-be9d-5d5877ccefc2}, !- Handle
  DOE-2;                                  !- Algorithm

OS:SurfaceConvectionAlgorithm:Inside,
  {55723bc6-c3c0-498d-a9b0-9013662be0e0}, !- Handle
  TARP;                                   !- Algorithm

OS:ZoneCapacitanceMultiplier:ResearchSpecial,
  {375b2b91-5a38-40e0-9099-4484eb130d22}, !- Handle
  7,                                      !- Temperature Capacity Multiplier
  15,                                     !- Humidity Capacity Multiplier
  ;                                       !- Carbon Dioxide Capacity Multiplier

OS:ConvergenceLimits,
  {eb553dfc-d83f-4a04-95ee-debf786cd871}, !- Handle
  0;                                      !- Minimum System Timestep {minutes}

OS:RunPeriod,
  {a3400709-602d-4330-98c2-dfa20e27309f}, !- Handle
  Run Period 1,                           !- Name
  1,                                      !- Begin Month
  1,                                      !- Begin Day of Month
  12,                                     !- End Month
  31,                                     !- End Day of Month
  ,                                       !- Use Weather File Holidays and Special Days
  ,                                       !- Use Weather File Daylight Saving Period
  ,                                       !- Apply Weekend Holiday Rule
  ,                                       !- Use Weather File Rain Indicators
  ,                                       !- Use Weather File Snow Indicators
  ;                                       !- Number of Times Runperiod to be Repeated

OS:PerformancePrecisionTradeoffs,
  {64b4ba4e-6370-4b5f-9909-f9298338bdc4}, !- Handle
  ,                                       !- Use Coil Direct Solutions
  CarrollMRT;                             !- Zone Radiant Exchange Algorithm

OS:WeatherFile,
  {40b0e545-bdcf-4bb1-a8f0-b8d549002233}, !- Handle
  Buffalo Niagara Intl Ap,                !- City
  NY,                                     !- State Province Region
  USA,                                    !- Country
  TMY3,                                   !- Data Source
  725280,                                 !- WMO Number
  42.93,                                  !- Latitude {deg}
  -78.73,                                 !- Longitude {deg}
  -5,                                     !- Time Zone {hr}
  215,                                    !- Elevation {m}
  /Users/nmoore/github/urbanopt-example-geojson-project/example_project/weather/USA_NY_Buffalo-Greater.Buffalo.Intl.AP.725280_TMY3.epw, !- Url
  6B50E0FF,                               !- Checksum
  ,                                       !- Start Date Actual Year
  Sunday;                                 !- Start Day of Week

OS:YearDescription,
  {eac8d1e0-db0d-44c5-86b6-28bcbee5b3c8}, !- Handle
  2007,                                   !- Calendar Year
  ,                                       !- Day of Week for Start Day
  ;                                       !- Is Leap Year

OS:Site,
  {a2e4a1a2-18e1-4322-83aa-cd2270fad6b8}, !- Handle
  Buffalo Niagara Intl Ap_NY,             !- Name
  42.93,                                  !- Latitude {deg}
  -78.73,                                 !- Longitude {deg}
  -5,                                     !- Time Zone {hr}
  215,                                    !- Elevation {m}
  Suburbs,                                !- Terrain
  Yes;                                    !- Keep Site Location Information

OS:RunPeriodControl:DaylightSavingTime,
  {93f5ec90-a84c-4491-8618-a6981b22682a}, !- Handle
  Mar 12,                                 !- Start Date
  Nov 5;                                  !- End Date

OS:Site:GroundTemperature:Shallow,
  {d992d596-9ce1-49e4-9e06-8bdd6cc59466}, !- Handle
  4.30207395723828,                       !- January Surface Ground Temperature {C}
  2.29327249652502,                       !- February Surface Ground Temperature {C}
  2.13240047156047,                       !- March Surface Ground Temperature {C}
  3.08567940719286,                       !- April Surface Ground Temperature {C}
  6.91256312497526,                       !- May Surface Ground Temperature {C}
  10.7216195949507,                       !- June Surface Ground Temperature {C}
  14.0238679822574,                       !- July Surface Ground Temperature {C}
  16.1157611184724,                       !- August Surface Ground Temperature {C}
  16.2934789303462,                       !- September Surface Ground Temperature {C}
  14.5920754632847,                       !- October Surface Ground Temperature {C}
  11.374036348653,                        !- November Surface Ground Temperature {C}
  7.68182621661674;                       !- December Surface Ground Temperature {C}

OS:ThermalZone,
  {f5e4f94b-79a9-462e-9b06-c5a8b8bdab72}, !- Handle
  conditioned space,                      !- Name
  1,                                      !- Multiplier
  ,                                       !- Ceiling Height {m}
  346.03186535424,                        !- Volume {m3}
  ,                                       !- Floor Area {m2}
  ,                                       !- Zone Inside Convection Algorithm
  ,                                       !- Zone Outside Convection Algorithm
  ,                                       !- Zone Conditioning Equipment List Name
  {1ae532d2-082e-49c6-9ac3-cf1fb3416a5c}, !- Zone Air Inlet Port List
  {4ac5a94f-01e5-4f50-a623-85f3955afe78}, !- Zone Air Exhaust Port List
  {c5f18716-492c-4135-9a24-6bd87226b24b}, !- Zone Air Node Name
  {21254147-ebde-41a6-8400-b3ed362d21d3}, !- Zone Return Air Port List
  ,                                       !- Primary Daylighting Control Name
  ,                                       !- Fraction of Zone Controlled by Primary Daylighting Control
  ,                                       !- Secondary Daylighting Control Name
  ,                                       !- Fraction of Zone Controlled by Secondary Daylighting Control
  ,                                       !- Illuminance Map Name
  ,                                       !- Group Rendering Name
  {ceed7518-6664-4612-89e1-5f093c27c21f}, !- Thermostat Name
  No;                                     !- Use Ideal Air Loads

OS:Node,
  {e4615008-5965-4813-9348-d7853e47117c}, !- Handle
  Node 1,                                 !- Name
  {c5f18716-492c-4135-9a24-6bd87226b24b}, !- Inlet Port
  ;                                       !- Outlet Port

OS:Connection,
  {c5f18716-492c-4135-9a24-6bd87226b24b}, !- Handle
  {f5e4f94b-79a9-462e-9b06-c5a8b8bdab72}, !- Source Object
  11,                                     !- Outlet Port
  {e4615008-5965-4813-9348-d7853e47117c}, !- Target Object
  2;                                      !- Inlet Port

OS:PortList,
  {1ae532d2-082e-49c6-9ac3-cf1fb3416a5c}, !- Handle
  {f5e4f94b-79a9-462e-9b06-c5a8b8bdab72}, !- HVAC Component
  {122b5abb-2d90-4a64-89a6-89435b2a16e3}; !- Port 1

OS:PortList,
  {4ac5a94f-01e5-4f50-a623-85f3955afe78}, !- Handle
  {f5e4f94b-79a9-462e-9b06-c5a8b8bdab72}; !- HVAC Component

OS:PortList,
  {21254147-ebde-41a6-8400-b3ed362d21d3}, !- Handle
  {f5e4f94b-79a9-462e-9b06-c5a8b8bdab72}, !- HVAC Component
  {b2257f01-3b23-48bf-afe6-61b953bbb1a2}; !- Port 1

OS:Sizing:Zone,
  {a1e1dde8-2753-4144-bdd7-4f90ea6bafd0}, !- Handle
  {f5e4f94b-79a9-462e-9b06-c5a8b8bdab72}, !- Zone or ZoneList Name
  SupplyAirTemperature,                   !- Zone Cooling Design Supply Air Temperature Input Method
  14,                                     !- Zone Cooling Design Supply Air Temperature {C}
  11.11,                                  !- Zone Cooling Design Supply Air Temperature Difference {deltaC}
  SupplyAirTemperature,                   !- Zone Heating Design Supply Air Temperature Input Method
  40,                                     !- Zone Heating Design Supply Air Temperature {C}
  11.11,                                  !- Zone Heating Design Supply Air Temperature Difference {deltaC}
  0.0085,                                 !- Zone Cooling Design Supply Air Humidity Ratio {kg-H2O/kg-air}
  0.008,                                  !- Zone Heating Design Supply Air Humidity Ratio {kg-H2O/kg-air}
  ,                                       !- Zone Heating Sizing Factor
  ,                                       !- Zone Cooling Sizing Factor
  DesignDay,                              !- Cooling Design Air Flow Method
  ,                                       !- Cooling Design Air Flow Rate {m3/s}
  ,                                       !- Cooling Minimum Air Flow per Zone Floor Area {m3/s-m2}
  ,                                       !- Cooling Minimum Air Flow {m3/s}
  ,                                       !- Cooling Minimum Air Flow Fraction
  DesignDay,                              !- Heating Design Air Flow Method
  ,                                       !- Heating Design Air Flow Rate {m3/s}
  ,                                       !- Heating Maximum Air Flow per Zone Floor Area {m3/s-m2}
  ,                                       !- Heating Maximum Air Flow {m3/s}
  ,                                       !- Heating Maximum Air Flow Fraction
  No,                                     !- Account for Dedicated Outdoor Air System
  NeutralSupplyAir,                       !- Dedicated Outdoor Air System Control Strategy
  autosize,                               !- Dedicated Outdoor Air Low Setpoint Temperature for Design {C}
  autosize,                               !- Dedicated Outdoor Air High Setpoint Temperature for Design {C}
  Sensible Load Only No Latent Load,      !- Zone Load Sizing Method
  HumidityRatioDifference,                !- Zone Latent Cooling Design Supply Air Humidity Ratio Input Method
  ,                                       !- Zone Dehumidification Design Supply Air Humidity Ratio {kgWater/kgDryAir}
  0.005,                                  !- Zone Cooling Design Supply Air Humidity Ratio Difference {kgWater/kgDryAir}
  HumidityRatioDifference,                !- Zone Latent Heating Design Supply Air Humidity Ratio Input Method
  ,                                       !- Zone Humidification Design Supply Air Humidity Ratio {kgWater/kgDryAir}
  0.005,                                  !- Zone Humidification Design Supply Air Humidity Ratio Difference {kgWater/kgDryAir}
  ,                                       !- Zone Humidistat Dehumidification Set Point Schedule Name
  ,                                       !- Zone Humidistat Humidification Set Point Schedule Name
  ,                                       !- Design Zone Air Distribution Effectiveness in Cooling Mode
  ,                                       !- Design Zone Air Distribution Effectiveness in Heating Mode
  ,                                       !- Design Zone Secondary Recirculation Fraction {dimensionless}
  ,                                       !- Design Minimum Zone Ventilation Efficiency {dimensionless}
  Coincident;                             !- Sizing Option

OS:ZoneHVAC:EquipmentList,
  {675fbe15-e7cd-413d-b2bb-4d7cdae5217e}, !- Handle
  Zone HVAC Equipment List 1,             !- Name
  {f5e4f94b-79a9-462e-9b06-c5a8b8bdab72}, !- Thermal Zone
  ,                                       !- Load Distribution Scheme
  {034a5f57-7da6-4d67-944f-98ae17fe44f8}, !- Zone Equipment 1
  1,                                      !- Zone Equipment Cooling Sequence 1
  1,                                      !- Zone Equipment Heating or No-Load Sequence 1
  {b2e2b9fd-2c33-4c69-bb84-133bb26c494b}, !- Zone Equipment Sequential Cooling Fraction Schedule Name 1
  {47cf020f-a616-4426-8bae-db9a23498bdf}; !- Zone Equipment Sequential Heating Fraction Schedule Name 1

OS:AdditionalProperties,
  {4d305335-d8db-4469-a5ba-b305b1073c61}, !- Handle
  {f5e4f94b-79a9-462e-9b06-c5a8b8bdab72}, !- Object Name
  ObjectType,                             !- Feature Name 1
  String,                                 !- Feature Data Type 1
  conditioned space;                      !- Feature Value 1

OS:Space,
  {f37a883d-05f0-4b08-b0b9-bd22f510be94}, !- Handle
  conditioned space 1,                    !- Name
  ,                                       !- Space Type Name
  ,                                       !- Default Construction Set Name
  ,                                       !- Default Schedule Set Name
  ,                                       !- Direction of Relative North {deg}
  ,                                       !- X Origin {m}
  ,                                       !- Y Origin {m}
  ,                                       !- Z Origin {m}
  ,                                       !- Building Story Name
  {f5e4f94b-79a9-462e-9b06-c5a8b8bdab72}, !- Thermal Zone Name
  ,                                       !- Part of Total Floor Area
  ,                                       !- Design Specification Outdoor Air Object Name
  ,                                       !- Building Unit Name
  346.03186535424;                        !- Volume {m3}

OS:Schedule:Ruleset,
  {505ebd1d-4a01-4e0a-9ff3-d164681a31f1}, !- Handle
  heating setpoint,                       !- Name
  {f2f47bfb-07f1-4e17-9a47-cccb4df8f75c}, !- Schedule Type Limits Name
  {23712f5a-5697-473b-acad-d11700229b65}; !- Default Day Schedule Name

OS:Schedule:Day,
  {23712f5a-5697-473b-acad-d11700229b65}, !- Handle
  heating setpoint default day,           !- Name
  {f2f47bfb-07f1-4e17-9a47-cccb4df8f75c}, !- Schedule Type Limits Name
  ,                                       !- Interpolate to Timestep
  24,                                     !- Hour 1
  0,                                      !- Minute 1
  0;                                      !- Value Until Time 1

OS:Schedule:Rule,
  {5bae4d87-9632-44bb-a638-27ed76abef51}, !- Handle
  heating setpoint allday rule,           !- Name
  {505ebd1d-4a01-4e0a-9ff3-d164681a31f1}, !- Schedule Ruleset Name
  0,                                      !- Rule Order
  {ebd0ccf2-344e-485c-81e9-84e2b42f3315}, !- Day Schedule Name
  Yes,                                    !- Apply Sunday
  Yes,                                    !- Apply Monday
  Yes,                                    !- Apply Tuesday
  Yes,                                    !- Apply Wednesday
  Yes,                                    !- Apply Thursday
  Yes,                                    !- Apply Friday
  Yes,                                    !- Apply Saturday
  DateRange,                              !- Date Specification Type
  1,                                      !- Start Month
  1,                                      !- Start Day
  12,                                     !- End Month
  31;                                     !- End Day

OS:Schedule:Day,
  {ebd0ccf2-344e-485c-81e9-84e2b42f3315}, !- Handle
  heating setpoint day,                   !- Name
  {f2f47bfb-07f1-4e17-9a47-cccb4df8f75c}, !- Schedule Type Limits Name
  ,                                       !- Interpolate to Timestep
  24,                                     !- Hour 1
  0,                                      !- Minute 1
  20;                                     !- Value Until Time 1

OS:Schedule:Ruleset,
  {87f85ca1-d3ec-49de-8a53-864620912e78}, !- Handle
  cooling setpoint,                       !- Name
  {f2f47bfb-07f1-4e17-9a47-cccb4df8f75c}, !- Schedule Type Limits Name
  {3fe248f8-2d55-4cc5-85fa-65029712634a}; !- Default Day Schedule Name

OS:Schedule:Day,
  {3fe248f8-2d55-4cc5-85fa-65029712634a}, !- Handle
  cooling setpoint default day,           !- Name
  {f2f47bfb-07f1-4e17-9a47-cccb4df8f75c}, !- Schedule Type Limits Name
  ,                                       !- Interpolate to Timestep
  24,                                     !- Hour 1
  0,                                      !- Minute 1
  0;                                      !- Value Until Time 1

OS:Schedule:Rule,
  {0ffcc644-e26b-4398-90e6-3881b76004e1}, !- Handle
  cooling setpoint allday rule,           !- Name
  {87f85ca1-d3ec-49de-8a53-864620912e78}, !- Schedule Ruleset Name
  0,                                      !- Rule Order
  {a79f4523-23a1-4cd9-8676-e0715c945165}, !- Day Schedule Name
  Yes,                                    !- Apply Sunday
  Yes,                                    !- Apply Monday
  Yes,                                    !- Apply Tuesday
  Yes,                                    !- Apply Wednesday
  Yes,                                    !- Apply Thursday
  Yes,                                    !- Apply Friday
  Yes,                                    !- Apply Saturday
  DateRange,                              !- Date Specification Type
  1,                                      !- Start Month
  1,                                      !- Start Day
  12,                                     !- End Month
  31;                                     !- End Day

OS:Schedule:Day,
  {a79f4523-23a1-4cd9-8676-e0715c945165}, !- Handle
  cooling setpoint day,                   !- Name
  {f2f47bfb-07f1-4e17-9a47-cccb4df8f75c}, !- Schedule Type Limits Name
  ,                                       !- Interpolate to Timestep
  24,                                     !- Hour 1
  0,                                      !- Minute 1
  25.5555555555556;                       !- Value Until Time 1

OS:ThermostatSetpoint:DualSetpoint,
  {ceed7518-6664-4612-89e1-5f093c27c21f}, !- Handle
  conditioned space temperature setpoint, !- Name
  {505ebd1d-4a01-4e0a-9ff3-d164681a31f1}, !- Heating Setpoint Temperature Schedule Name
  {87f85ca1-d3ec-49de-8a53-864620912e78}, !- Cooling Setpoint Temperature Schedule Name
  0;                                      !- Temperature Difference Between Cutout And Setpoint {deltaC}

OS:ScheduleTypeLimits,
  {f2f47bfb-07f1-4e17-9a47-cccb4df8f75c}, !- Handle
  Temperature,                            !- Name
  ,                                       !- Lower Limit Value
  ,                                       !- Upper Limit Value
  Continuous,                             !- Numeric Type
  Temperature;                            !- Unit Type

OS:Surface,
  {5fbecbd4-bcfb-489f-bc36-4e9024fc9694}, !- Handle
  Roof1,                                  !- Name
  RoofCeiling,                            !- Surface Type
  {afa22f18-3030-4921-970a-02e05929c1b5}, !- Construction Name
  {4c108064-95b1-4b2e-8870-961bbb4419ed}, !- Space Name
  Outdoors,                               !- Outside Boundary Condition
  ,                                       !- Outside Boundary Condition Object
  SunExposed,                             !- Sun Exposure
  WindExposed,                            !- Wind Exposure
  ,                                       !- View Factor to Ground
  ,                                       !- Number of Vertices
  1.41860524590607, 10.3253389825797, 3.048, !- X,Y,Z Vertex 1 {m}
  1.41860524590607, 2.35891414550252, 7.03121241853859, !- X,Y,Z Vertex 2 {m}
  10.3253389825797, 2.35891414550251, 7.03121241853859, !- X,Y,Z Vertex 3 {m}
  10.3253389825797, 10.3253389825797, 3.048; !- X,Y,Z Vertex 4 {m}

OS:AdditionalProperties,
  {a7d50c4c-e9be-48c9-a64a-430a22f87c70}, !- Handle
  {5fbecbd4-bcfb-489f-bc36-4e9024fc9694}, !- Object Name
  Length,                                 !- Feature Name 1
  Double,                                 !- Feature Data Type 1
  29.221567377538118,                     !- Feature Value 1
  Width,                                  !- Feature Name 2
  Double,                                 !- Feature Data Type 2
  29.221567377538118,                     !- Feature Value 2
  Azimuth,                                !- Feature Name 3
  Integer,                                !- Feature Data Type 3
  0,                                      !- Feature Value 3
  Tilt,                                   !- Feature Name 4
  Double,                                 !- Feature Data Type 4
  0.5,                                    !- Feature Value 4
  SurfaceType,                            !- Feature Name 5
  String,                                 !- Feature Data Type 5
  Roof;                                   !- Feature Value 5

OS:ThermalZone,
  {ee2aa617-f1f7-4c65-bfef-a3f9b41649a2}, !- Handle
  attic - vented,                         !- Name
  1,                                      !- Multiplier
  ,                                       !- Ceiling Height {m}
  126.003218814318,                       !- Volume {m3}
  ,                                       !- Floor Area {m2}
  ,                                       !- Zone Inside Convection Algorithm
  ,                                       !- Zone Outside Convection Algorithm
  ,                                       !- Zone Conditioning Equipment List Name
  {5eaff686-b695-407c-9553-39e7d432de81}, !- Zone Air Inlet Port List
  {4f6a5494-53d3-421c-815b-0ff100afef81}, !- Zone Air Exhaust Port List
  {0d99eacf-a2a5-49ec-840b-4637c8c1ba09}, !- Zone Air Node Name
  {c3b83578-67df-46c1-b9b2-dd020ed6b9dd}, !- Zone Return Air Port List
  ,                                       !- Primary Daylighting Control Name
  ,                                       !- Fraction of Zone Controlled by Primary Daylighting Control
  ,                                       !- Secondary Daylighting Control Name
  ,                                       !- Fraction of Zone Controlled by Secondary Daylighting Control
  ,                                       !- Illuminance Map Name
  ,                                       !- Group Rendering Name
  ,                                       !- Thermostat Name
  No;                                     !- Use Ideal Air Loads

OS:Node,
  {89f8625a-75a4-4f43-92ff-42f8b03a1d19}, !- Handle
  Node 2,                                 !- Name
  {0d99eacf-a2a5-49ec-840b-4637c8c1ba09}, !- Inlet Port
  ;                                       !- Outlet Port

OS:Connection,
  {0d99eacf-a2a5-49ec-840b-4637c8c1ba09}, !- Handle
  {ee2aa617-f1f7-4c65-bfef-a3f9b41649a2}, !- Source Object
  11,                                     !- Outlet Port
  {89f8625a-75a4-4f43-92ff-42f8b03a1d19}, !- Target Object
  2;                                      !- Inlet Port

OS:PortList,
  {5eaff686-b695-407c-9553-39e7d432de81}, !- Handle
  {ee2aa617-f1f7-4c65-bfef-a3f9b41649a2}; !- HVAC Component

OS:PortList,
  {4f6a5494-53d3-421c-815b-0ff100afef81}, !- Handle
  {ee2aa617-f1f7-4c65-bfef-a3f9b41649a2}; !- HVAC Component

OS:PortList,
  {c3b83578-67df-46c1-b9b2-dd020ed6b9dd}, !- Handle
  {ee2aa617-f1f7-4c65-bfef-a3f9b41649a2}; !- HVAC Component

OS:Sizing:Zone,
  {68e91acc-e941-4d18-b979-a7cc5f980580}, !- Handle
  {ee2aa617-f1f7-4c65-bfef-a3f9b41649a2}, !- Zone or ZoneList Name
  SupplyAirTemperature,                   !- Zone Cooling Design Supply Air Temperature Input Method
  14,                                     !- Zone Cooling Design Supply Air Temperature {C}
  11.11,                                  !- Zone Cooling Design Supply Air Temperature Difference {deltaC}
  SupplyAirTemperature,                   !- Zone Heating Design Supply Air Temperature Input Method
  40,                                     !- Zone Heating Design Supply Air Temperature {C}
  11.11,                                  !- Zone Heating Design Supply Air Temperature Difference {deltaC}
  0.0085,                                 !- Zone Cooling Design Supply Air Humidity Ratio {kg-H2O/kg-air}
  0.008,                                  !- Zone Heating Design Supply Air Humidity Ratio {kg-H2O/kg-air}
  ,                                       !- Zone Heating Sizing Factor
  ,                                       !- Zone Cooling Sizing Factor
  DesignDay,                              !- Cooling Design Air Flow Method
  ,                                       !- Cooling Design Air Flow Rate {m3/s}
  ,                                       !- Cooling Minimum Air Flow per Zone Floor Area {m3/s-m2}
  ,                                       !- Cooling Minimum Air Flow {m3/s}
  ,                                       !- Cooling Minimum Air Flow Fraction
  DesignDay,                              !- Heating Design Air Flow Method
  ,                                       !- Heating Design Air Flow Rate {m3/s}
  ,                                       !- Heating Maximum Air Flow per Zone Floor Area {m3/s-m2}
  ,                                       !- Heating Maximum Air Flow {m3/s}
  ,                                       !- Heating Maximum Air Flow Fraction
  No,                                     !- Account for Dedicated Outdoor Air System
  NeutralSupplyAir,                       !- Dedicated Outdoor Air System Control Strategy
  autosize,                               !- Dedicated Outdoor Air Low Setpoint Temperature for Design {C}
  autosize,                               !- Dedicated Outdoor Air High Setpoint Temperature for Design {C}
  Sensible Load Only No Latent Load,      !- Zone Load Sizing Method
  HumidityRatioDifference,                !- Zone Latent Cooling Design Supply Air Humidity Ratio Input Method
  ,                                       !- Zone Dehumidification Design Supply Air Humidity Ratio {kgWater/kgDryAir}
  0.005,                                  !- Zone Cooling Design Supply Air Humidity Ratio Difference {kgWater/kgDryAir}
  HumidityRatioDifference,                !- Zone Latent Heating Design Supply Air Humidity Ratio Input Method
  ,                                       !- Zone Humidification Design Supply Air Humidity Ratio {kgWater/kgDryAir}
  0.005,                                  !- Zone Humidification Design Supply Air Humidity Ratio Difference {kgWater/kgDryAir}
  ,                                       !- Zone Humidistat Dehumidification Set Point Schedule Name
  ,                                       !- Zone Humidistat Humidification Set Point Schedule Name
  ,                                       !- Design Zone Air Distribution Effectiveness in Cooling Mode
  ,                                       !- Design Zone Air Distribution Effectiveness in Heating Mode
  ,                                       !- Design Zone Secondary Recirculation Fraction {dimensionless}
  ,                                       !- Design Minimum Zone Ventilation Efficiency {dimensionless}
  Coincident;                             !- Sizing Option

OS:ZoneHVAC:EquipmentList,
  {211c266a-9ce1-4823-8374-e814068054ed}, !- Handle
  Zone HVAC Equipment List 2,             !- Name
  {ee2aa617-f1f7-4c65-bfef-a3f9b41649a2}; !- Thermal Zone

OS:AdditionalProperties,
  {eb6a0b68-aa35-4fc7-b883-2a2f8b439574}, !- Handle
  {ee2aa617-f1f7-4c65-bfef-a3f9b41649a2}, !- Object Name
  ObjectType,                             !- Feature Name 1
  String,                                 !- Feature Data Type 1
  attic - vented;                         !- Feature Value 1

OS:Space,
  {4c108064-95b1-4b2e-8870-961bbb4419ed}, !- Handle
  attic - vented 1,                       !- Name
  ,                                       !- Space Type Name
  ,                                       !- Default Construction Set Name
  ,                                       !- Default Schedule Set Name
  ,                                       !- Direction of Relative North {deg}
  ,                                       !- X Origin {m}
  ,                                       !- Y Origin {m}
  ,                                       !- Z Origin {m}
  ,                                       !- Building Story Name
  {ee2aa617-f1f7-4c65-bfef-a3f9b41649a2}, !- Thermal Zone Name
  ,                                       !- Part of Total Floor Area
  ,                                       !- Design Specification Outdoor Air Object Name
  ,                                       !- Building Unit Name
  126.003218814318;                       !- Volume {m3}

OS:Material,
  {58d8488a-d922-4eea-88a6-5cc19097c907}, !- Handle
  asphalt or fiberglass shingles,         !- Name
  Rough,                                  !- Roughness
  0.00635,                                !- Thickness {m}
  0.162714,                               !- Conductivity {W/m-K}
  1121.4,                                 !- Density {kg/m3}
  1465.45,                                !- Specific Heat {J/kg-K}
  0.9,                                    !- Thermal Absorptance
  0.85,                                   !- Solar Absorptance