
OS:Version,
  {eb0bc1c2-4585-4b31-91bb-0ab7223cfdf4}, !- Handle
  3.9.0;                                  !- Version Identifier

OS:SimulationControl,
  {f7436348-ebe7-4170-9124-264348c5742a}, !- Handle
  ,                                       !- Do Zone Sizing Calculation
  ,                                       !- Do System Sizing Calculation
  ,                                       !- Do Plant Sizing Calculation
  No;                                     !- Run Simulation for Sizing Periods

OS:Timestep,
  {5dfeef88-b8f6-41eb-a852-02e5a54934b1}, !- Handle
  1;                                      !- Number of Timesteps per Hour

OS:ShadowCalculation,
  {6caf830a-1f24-4491-a64e-e42df50af108}, !- Handle
  PolygonClipping,                        !- Shading Calculation Method
  ,                                       !- Shading Calculation Update Frequency Method
  20,                                     !- Shading Calculation Update Frequency
  200,                                    !- Maximum Figures in Shadow Overlap Calculations
  ,                                       !- Polygon Clipping Algorithm
  512,                                    !- Pixel Counting Resolution
  ,                                       !- Sky Diffuse Modeling Algorithm
  No,                                     !- Output External Shading Calculation Results
  No,                                     !- Disable Self-Shading Within Shading Zone Groups
  No;                                     !- Disable Self-Shading From Shading Zone Groups to Other Zones

OS:SurfaceConvectionAlgorithm:Outside,
  {030d4c5b-8f33-43eb-a213-7fccbba10ab4}, !- Handle
  DOE-2;                                  !- Algorithm

OS:SurfaceConvectionAlgorithm:Inside,
  {81452738-4c0b-45e6-ab2b-7f6a3d0dd9f2}, !- Handle
  TARP;                                   !- Algorithm

OS:ZoneCapacitanceMultiplier:ResearchSpecial,
  {92b4c7a3-4279-4120-8580-e153a42e8e1d}, !- Handle
  7,                                      !- Temperature Capacity Multiplier
  15,                                     !- Humidity Capacity Multiplier
  ;                                       !- Carbon Dioxide Capacity Multiplier

OS:ConvergenceLimits,
  {23f6c3ea-060d-4a58-aa89-cdc7bc3db5a2}, !- Handle
  0;                                      !- Minimum System Timestep {minutes}

OS:RunPeriod,
  {c668a69e-8286-4e29-8378-7301be28e9c9}, !- Handle
  Run Period 1,                           !- Name
  1,                                      !- Begin Month
  1,                                      !- Begin Day of Month
  12,                                     !- End Month
  31,                                     !- End Day of Month
  ,                                       !- Use Weather File Holidays and Special Days
  ,                                       !- Use Weather File Daylight Saving Period
  ,                                       !- Apply Weekend Holiday Rule
  ,                                       !- Use Weather File Rain Indicators
  ,                                       !- Use Weather File Snow Indicators
  ;                                       !- Number of Times Runperiod to be Repeated

OS:PerformancePrecisionTradeoffs,
  {854de0e9-b619-44c3-bb5d-dd9937bbc5f2}, !- Handle
  ,                                       !- Use Coil Direct Solutions
  CarrollMRT;                             !- Zone Radiant Exchange Algorithm

OS:WeatherFile,
  {05c2bd1a-0d80-47eb-b1ab-6f8ad5548827}, !- Handle
  Buffalo Niagara Intl Ap,                !- City
  NY,                                     !- State Province Region
  USA,                                    !- Country
  TMY3,                                   !- Data Source
  725280,                                 !- WMO Number
  42.93,                                  !- Latitude {deg}
  -78.73,                                 !- Longitude {deg}
  -5,                                     !- Time Zone {hr}
  215,                                    !- Elevation {m}
  /Users/nmoore/github/urbanopt-example-geojson-project/example_project/weather/USA_NY_Buffalo-Greater.Buffalo.Intl.AP.725280_TMY3.epw, !- Url
  6B50E0FF,                               !- Checksum
  ,                                       !- Start Date Actual Year
  Sunday;                                 !- Start Day of Week

OS:YearDescription,
  {3db81b34-fe89-41ae-9328-0bca62d90660}, !- Handle
  2007,                                   !- Calendar Year
  ,                                       !- Day of Week for Start Day
  ;                                       !- Is Leap Year

OS:Site,
  {de8fdbbe-6882-4fd8-a2dd-1145466d9019}, !- Handle
  Buffalo Niagara Intl Ap_NY,             !- Name
  42.93,                                  !- Latitude {deg}
  -78.73,                                 !- Longitude {deg}
  -5,                                     !- Time Zone {hr}
  215,                                    !- Elevation {m}
  Suburbs,                                !- Terrain
  Yes;                                    !- Keep Site Location Information

OS:RunPeriodControl:DaylightSavingTime,
  {c34f22eb-bd79-4c0b-a81e-4a8a14aab7d0}, !- Handle
  Mar 12,                                 !- Start Date
  Nov 5;                                  !- End Date

OS:Site:GroundTemperature:Shallow,
  {240edc96-8e48-468e-8eb1-863dc9df82f1}, !- Handle
  4.30207395723828,                       !- January Surface Ground Temperature {C}
  2.29327249652502,                       !- February Surface Ground Temperature {C}
  2.13240047156047,                       !- March Surface Ground Temperature {C}
  3.08567940719286,                       !- April Surface Ground Temperature {C}
  6.91256312497526,                       !- May Surface Ground Temperature {C}
  10.7216195949507,                       !- June Surface Ground Temperature {C}
  14.0238679822574,                       !- July Surface Ground Temperature {C}
  16.1157611184724,                       !- August Surface Ground Temperature {C}
  16.2934789303462,                       !- September Surface Ground Temperature {C}
  14.5920754632847,                       !- October Surface Ground Temperature {C}
  11.374036348653,                        !- November Surface Ground Temperature {C}
  7.68182621661674;                       !- December Surface Ground Temperature {C}

OS:ThermalZone,
  {035b7636-9666-4cb8-ba06-e78bc47caaf9}, !- Handle
  conditioned space,                      !- Name
  1,                                      !- Multiplier
  ,                                       !- Ceiling Height {m}
  346.03186535424,                        !- Volume {m3}
  ,                                       !- Floor Area {m2}
  ,                                       !- Zone Inside Convection Algorithm
  ,                                       !- Zone Outside Convection Algorithm
  ,                                       !- Zone Conditioning Equipment List Name
  {4baee88a-e6fd-4ea9-8709-76d77274c86d}, !- Zone Air Inlet Port List
  {00a24f50-3b1a-4504-9ba3-1acae52c4847}, !- Zone Air Exhaust Port List
  {b1c55ae1-c2f1-4723-8dd7-89e04aa175ba}, !- Zone Air Node Name
  {272cd649-8ce6-4058-9163-f9daf87c69f7}, !- Zone Return Air Port List
  ,                                       !- Primary Daylighting Control Name
  ,                                       !- Fraction of Zone Controlled by Primary Daylighting Control
  ,                                       !- Secondary Daylighting Control Name
  ,                                       !- Fraction of Zone Controlled by Secondary Daylighting Control
  ,                                       !- Illuminance Map Name
  ,                                       !- Group Rendering Name
  {9dd5e663-024d-4a85-a50f-452437b94c7a}, !- Thermostat Name
  No;                                     !- Use Ideal Air Loads

OS:Node,
  {2f9ce364-7587-4810-b796-ce1b3ae9aa6e}, !- Handle
  Node 1,                                 !- Name
  {b1c55ae1-c2f1-4723-8dd7-89e04aa175ba}, !- Inlet Port
  ;                                       !- Outlet Port

OS:Connection,
  {b1c55ae1-c2f1-4723-8dd7-89e04aa175ba}, !- Handle
  {035b7636-9666-4cb8-ba06-e78bc47caaf9}, !- Source Object
  11,                                     !- Outlet Port
  {2f9ce364-7587-4810-b796-ce1b3ae9aa6e}, !- Target Object
  2;                                      !- Inlet Port

OS:PortList,
  {4baee88a-e6fd-4ea9-8709-76d77274c86d}, !- Handle
  {035b7636-9666-4cb8-ba06-e78bc47caaf9}, !- HVAC Component
  {956cd1b7-1252-434f-b00e-cea1b4a20c75}; !- Port 1

OS:PortList,
  {00a24f50-3b1a-4504-9ba3-1acae52c4847}, !- Handle
  {035b7636-9666-4cb8-ba06-e78bc47caaf9}; !- HVAC Component

OS:PortList,
  {272cd649-8ce6-4058-9163-f9daf87c69f7}, !- Handle
  {035b7636-9666-4cb8-ba06-e78bc47caaf9}, !- HVAC Component
  {09518e08-6026-4876-b7c7-6a34da1cae8e}; !- Port 1

OS:Sizing:Zone,
  {8f0edb72-b154-4164-b3e5-db8105858759}, !- Handle
  {035b7636-9666-4cb8-ba06-e78bc47caaf9}, !- Zone or ZoneList Name
  SupplyAirTemperature,                   !- Zone Cooling Design Supply Air Temperature Input Method
  14,                                     !- Zone Cooling Design Supply Air Temperature {C}
  11.11,                                  !- Zone Cooling Design Supply Air Temperature Difference {deltaC}
  SupplyAirTemperature,                   !- Zone Heating Design Supply Air Temperature Input Method
  40,                                     !- Zone Heating Design Supply Air Temperature {C}
  11.11,                                  !- Zone Heating Design Supply Air Temperature Difference {deltaC}
  0.0085,                                 !- Zone Cooling Design Supply Air Humidity Ratio {kg-H2O/kg-air}
  0.008,                                  !- Zone Heating Design Supply Air Humidity Ratio {kg-H2O/kg-air}
  ,                                       !- Zone Heating Sizing Factor
  ,                                       !- Zone Cooling Sizing Factor
  DesignDay,                              !- Cooling Design Air Flow Method
  ,                                       !- Cooling Design Air Flow Rate {m3/s}
  ,                                       !- Cooling Minimum Air Flow per Zone Floor Area {m3/s-m2}
  ,                                       !- Cooling Minimum Air Flow {m3/s}
  ,                                       !- Cooling Minimum Air Flow Fraction
  DesignDay,                              !- Heating Design Air Flow Method
  ,                                       !- Heating Design Air Flow Rate {m3/s}
  ,                                       !- Heating Maximum Air Flow per Zone Floor Area {m3/s-m2}
  ,                                       !- Heating Maximum Air Flow {m3/s}
  ,                                       !- Heating Maximum Air Flow Fraction
  No,                                     !- Account for Dedicated Outdoor Air System
  NeutralSupplyAir,                       !- Dedicated Outdoor Air System Control Strategy
  autosize,                               !- Dedicated Outdoor Air Low Setpoint Temperature for Design {C}
  autosize,                               !- Dedicated Outdoor Air High Setpoint Temperature for Design {C}
  Sensible Load Only No Latent Load,      !- Zone Load Sizing Method
  HumidityRatioDifference,                !- Zone Latent Cooling Design Supply Air Humidity Ratio Input Method
  ,                                       !- Zone Dehumidification Design Supply Air Humidity Ratio {kgWater/kgDryAir}
  0.005,                                  !- Zone Cooling Design Supply Air Humidity Ratio Difference {kgWater/kgDryAir}
  HumidityRatioDifference,                !- Zone Latent Heating Design Supply Air Humidity Ratio Input Method
  ,                                       !- Zone Humidification Design Supply Air Humidity Ratio {kgWater/kgDryAir}
  0.005,                                  !- Zone Humidification Design Supply Air Humidity Ratio Difference {kgWater/kgDryAir}
  ,                                       !- Zone Humidistat Dehumidification Set Point Schedule Name
  ,                                       !- Zone Humidistat Humidification Set Point Schedule Name
  ,                                       !- Design Zone Air Distribution Effectiveness in Cooling Mode
  ,                                       !- Design Zone Air Distribution Effectiveness in Heating Mode
  ,                                       !- Design Zone Secondary Recirculation Fraction {dimensionless}
  ,                                       !- Design Minimum Zone Ventilation Efficiency {dimensionless}
  Coincident;                             !- Sizing Option

OS:ZoneHVAC:EquipmentList,
  {022f8ad2-f9e2-497d-b272-c3b9fd403c66}, !- Handle
  Zone HVAC Equipment List 1,             !- Name
  {035b7636-9666-4cb8-ba06-e78bc47caaf9}, !- Thermal Zone
  ,                                       !- Load Distribution Scheme
  {2c5d0f6f-91ac-49dd-8c71-ec34c75365ae}, !- Zone Equipment 1
  1,                                      !- Zone Equipment Cooling Sequence 1
  1,                                      !- Zone Equipment Heating or No-Load Sequence 1
  {8e22744c-ffe3-48db-83f1-f13d5c315aed}, !- Zone Equipment Sequential Cooling Fraction Schedule Name 1
  {6ebea7b1-391b-4178-9f8a-1c2e6066495e}; !- Zone Equipment Sequential Heating Fraction Schedule Name 1

OS:AdditionalProperties,
  {15327c45-216a-4043-9a2f-d69cbd2d1663}, !- Handle
  {035b7636-9666-4cb8-ba06-e78bc47caaf9}, !- Object Name
  ObjectType,                             !- Feature Name 1
  String,                                 !- Feature Data Type 1
  conditioned space;                      !- Feature Value 1

OS:Space,
  {b4f08122-8339-4783-8201-9e58dcd6f31c}, !- Handle
  conditioned space 1,                    !- Name
  ,                                       !- Space Type Name
  ,                                       !- Default Construction Set Name
  ,                                       !- Default Schedule Set Name
  ,                                       !- Direction of Relative North {deg}
  ,                                       !- X Origin {m}
  ,                                       !- Y Origin {m}
  ,                                       !- Z Origin {m}
  ,                                       !- Building Story Name
  {035b7636-9666-4cb8-ba06-e78bc47caaf9}, !- Thermal Zone Name
  ,                                       !- Part of Total Floor Area
  ,                                       !- Design Specification Outdoor Air Object Name
  ,                                       !- Building Unit Name
  346.03186535424;                        !- Volume {m3}

OS:Schedule:Ruleset,
  {0e57e675-1182-4510-8645-a3fbdb5e6d90}, !- Handle
  heating setpoint,                       !- Name
  {22c5ff4b-7c9c-4664-8f1a-d92b0c9f9f00}, !- Schedule Type Limits Name
  {2f290233-a07e-4cac-929b-32289d3b3c14}; !- Default Day Schedule Name

OS:Schedule:Day,
  {2f290233-a07e-4cac-929b-32289d3b3c14}, !- Handle
  heating setpoint default day,           !- Name
  {22c5ff4b-7c9c-4664-8f1a-d92b0c9f9f00}, !- Schedule Type Limits Name
  ,                                       !- Interpolate to Timestep
  24,                                     !- Hour 1
  0,                                      !- Minute 1
  0;                                      !- Value Until Time 1

OS:Schedule:Rule,
  {022582d5-53ab-4e7f-9c04-a667add24d2a}, !- Handle
  heating setpoint allday rule,           !- Name
  {0e57e675-1182-4510-8645-a3fbdb5e6d90}, !- Schedule Ruleset Name
  0,                                      !- Rule Order
  {201cb96b-82da-4b95-aaa9-c5b0d8c6f4c3}, !- Day Schedule Name
  Yes,                                    !- Apply Sunday
  Yes,                                    !- Apply Monday
  Yes,                                    !- Apply Tuesday
  Yes,                                    !- Apply Wednesday
  Yes,                                    !- Apply Thursday
  Yes,                                    !- Apply Friday
  Yes,                                    !- Apply Saturday
  DateRange,                              !- Date Specification Type
  1,                                      !- Start Month
  1,                                      !- Start Day
  12,                                     !- End Month
  31;                                     !- End Day

OS:Schedule:Day,
  {201cb96b-82da-4b95-aaa9-c5b0d8c6f4c3}, !- Handle
  heating setpoint day,                   !- Name
  {22c5ff4b-7c9c-4664-8f1a-d92b0c9f9f00}, !- Schedule Type Limits Name
  ,                                       !- Interpolate to Timestep
  24,                                     !- Hour 1
  0,                                      !- Minute 1
  20;                                     !- Value Until Time 1

OS:Schedule:Ruleset,
  {9173de2a-e635-4d8a-8e1a-348f17234e9e}, !- Handle
  cooling setpoint,                       !- Name
  {22c5ff4b-7c9c-4664-8f1a-d92b0c9f9f00}, !- Schedule Type Limits Name
  {3c2bcc2c-5bc3-4acb-b317-2f9d7cde3421}; !- Default Day Schedule Name

OS:Schedule:Day,
  {3c2bcc2c-5bc3-4acb-b317-2f9d7cde3421}, !- Handle
  cooling setpoint default day,           !- Name
  {22c5ff4b-7c9c-4664-8f1a-d92b0c9f9f00}, !- Schedule Type Limits Name
  ,                                       !- Interpolate to Timestep
  24,                                     !- Hour 1
  0,                                      !- Minute 1
  0;                                      !- Value Until Time 1

OS:Schedule:Rule,
  {07e2910e-27bb-4250-a3f4-82f5df135108}, !- Handle
  cooling setpoint allday rule,           !- Name
  {9173de2a-e635-4d8a-8e1a-348f17234e9e}, !- Schedule Ruleset Name
  0,                                      !- Rule Order
  {0a310815-853b-4cec-85da-0bc08eab69c4}, !- Day Schedule Name
  Yes,                                    !- Apply Sunday
  Yes,                                    !- Apply Monday
  Yes,                                    !- Apply Tuesday
  Yes,                                    !- Apply Wednesday
  Yes,                                    !- Apply Thursday
  Yes,                                    !- Apply Friday
  Yes,                                    !- Apply Saturday
  DateRange,                              !- Date Specification Type
  1,                                      !- Start Month
  1,                                      !- Start Day
  12,                                     !- End Month
  31;                                     !- End Day

OS:Schedule:Day,
  {0a310815-853b-4cec-85da-0bc08eab69c4}, !- Handle
  cooling setpoint day,                   !- Name
  {22c5ff4b-7c9c-4664-8f1a-d92b0c9f9f00}, !- Schedule Type Limits Name
  ,                                       !- Interpolate to Timestep
  24,                                     !- Hour 1
  0,                                      !- Minute 1
  25.5555555555556;                       !- Value Until Time 1

OS:ThermostatSetpoint:DualSetpoint,
  {9dd5e663-024d-4a85-a50f-452437b94c7a}, !- Handle
  conditioned space temperature setpoint, !- Name
  {0e57e675-1182-4510-8645-a3fbdb5e6d90}, !- Heating Setpoint Temperature Schedule Name
  {9173de2a-e635-4d8a-8e1a-348f17234e9e}, !- Cooling Setpoint Temperature Schedule Name
  0;                                      !- Temperature Difference Between Cutout And Setpoint {deltaC}

OS:ScheduleTypeLimits,
  {22c5ff4b-7c9c-4664-8f1a-d92b0c9f9f00}, !- Handle
  Temperature,                            !- Name
  ,                                       !- Lower Limit Value
  ,                                       !- Upper Limit Value
  Continuous,                             !- Numeric Type
  Temperature;                            !- Unit Type

OS:Surface,
  {caa806fa-2f0c-41a4-bd06-23512b9a7c3d}, !- Handle
  Roof1,                                  !- Name
  RoofCeiling,                            !- Surface Type
  {540cd82e-1a00-4d1d-a1b0-7358eb7c2bc1}, !- Construction Name
  {7f9a77d6-c70d-4b37-8098-3cabd82814db}, !- Space Name
  Outdoors,                               !- Outside Boundary Condition
  ,                                       !- Outside Boundary Condition Object
  SunExposed,                             !- Sun Exposure
  WindExposed,                            !- Wind Exposure
  ,                                       !- View Factor to Ground
  ,                                       !- Number of Vertices
  -20.3643750774516, 29.0994858774516, 2.4384, !- X,Y,Z Vertex 1 {m}
  -20.3643750774516, 22.5947368017685, 5.69077453784155, !- X,Y,Z Vertex 2 {m}
  -13.0918445225484, 22.5947368017685, 5.69077453784155, !- X,Y,Z Vertex 3 {m}
  -13.0918445225484, 29.0994858774516, 2.4384; !- X,Y,Z Vertex 4 {m}

OS:AdditionalProperties,
  {31558858-c03e-47e8-bbe3-8b215915f980}, !- Handle
  {caa806fa-2f0c-41a4-bd06-23512b9a7c3d}, !- Object Name
  Length,                                 !- Feature Name 1
  Double,                                 !- Feature Data Type 1
  23.860008382228202,                     !- Feature Value 1
  Width,                                  !- Feature Name 2
  Double,                                 !- Feature Data Type 2
  23.860008382228198,                     !- Feature Value 2
  Azimuth,                                !- Feature Name 3
  Integer,                                !- Feature Data Type 3
  0,                                      !- Feature Value 3
  Tilt,                                   !- Feature Name 4
  Double,                                 !- Feature Data Type 4
  0.5,                                    !- Feature Value 4
  SurfaceType,                            !- Feature Name 5
  String,                                 !- Feature Data Type 5
  Roof;                                   !- Feature Value 5

OS:ThermalZone,
  {298bd949-d667-45ce-a1c9-f69e6ccf3ae5}, !- Handle
  attic - vented,                         !- Name
  1,                                      !- Multiplier
  ,                                       !- Ceiling Height {m}
  68.5839116251789,                       !- Volume {m3}
  ,                                       !- Floor Area {m2}
  ,                                       !- Zone Inside Convection Algorithm
  ,                                       !- Zone Outside Convection Algorithm
  ,                                       !- Zone Conditioning Equipment List Name
  {41924ee3-ff7a-41ba-b03c-6cac857af9bd}, !- Zone Air Inlet Port List
  {4e123b2f-c075-4f78-b18a-83566f8df450}, !- Zone Air Exhaust Port List
  {1917ed2f-d1cf-451a-9663-8fe40b8ac4a3}, !- Zone Air Node Name
  {6b572cd9-04ca-4105-b8fa-84478dbc7a02}, !- Zone Return Air Port List
  ,                                       !- Primary Daylighting Control Name
  ,                                       !- Fraction of Zone Controlled by Primary Daylighting Control
  ,                                       !- Secondary Daylighting Control Name
  ,                                       !- Fraction of Zone Controlled by Secondary Daylighting Control
  ,                                       !- Illuminance Map Name
  ,                                       !- Group Rendering Name
  ,                                       !- Thermostat Name
  No;                                     !- Use Ideal Air Loads

OS:Node,
  {c1126718-4449-4430-acac-aa8d1634968b}, !- Handle
  Node 2,                                 !- Name
  {1917ed2f-d1cf-451a-9663-8fe40b8ac4a3}, !- Inlet Port
  ;                                       !- Outlet Port

OS:Connection,
  {1917ed2f-d1cf-451a-9663-8fe40b8ac4a3}, !- Handle
  {298bd949-d667-45ce-a1c9-f69e6ccf3ae5}, !- Source Object
  11,                                     !- Outlet Port
  {c1126718-4449-4430-acac-aa8d1634968b}, !- Target Object
  2;                                      !- Inlet Port

OS:PortList,
  {41924ee3-ff7a-41ba-b03c-6cac857af9bd}, !- Handle
  {298bd949-d667-45ce-a1c9-f69e6ccf3ae5}; !- HVAC Component

OS:PortList,
  {4e123b2f-c075-4f78-b18a-83566f8df450}, !- Handle
  {298bd949-d667-45ce-a1c9-f69e6ccf3ae5}; !- HVAC Component

OS:PortList,
  {6b572cd9-04ca-4105-b8fa-84478dbc7a02}, !- Handle
  {298bd949-d667-45ce-a1c9-f69e6ccf3ae5}; !- HVAC Component

OS:Sizing:Zone,
  {a7e8967c-503a-4586-bdb8-7324d341110e}, !- Handle
  {298bd949-d667-45ce-a1c9-f69e6ccf3ae5}, !- Zone or ZoneList Name
  SupplyAirTemperature,                   !- Zone Cooling Design Supply Air Temperature Input Method
  14,                                     !- Zone Cooling Design Supply Air Temperature {C}
  11.11,                                  !- Zone Cooling Design Supply Air Temperature Difference {deltaC}
  SupplyAirTemperature,                   !- Zone Heating Design Supply Air Temperature Input Method
  40,                                     !- Zone Heating Design Supply Air Temperature {C}
  11.11,                                  !- Zone Heating Design Supply Air Temperature Difference {deltaC}
  0.0085,                                 !- Zone Cooling Design Supply Air Humidity Ratio {kg-H2O/kg-air}
  0.008,                                  !- Zone Heating Design Supply Air Humidity Ratio {kg-H2O/kg-air}
  ,                                       !- Zone Heating Sizing Factor
  ,                                       !- Zone Cooling Sizing Factor
  DesignDay,                              !- Cooling Design Air Flow Method
  ,                                       !- Cooling Design Air Flow Rate {m3/s}
  ,                                       !- Cooling Minimum Air Flow per Zone Floor Area {m3/s-m2}
  ,                                       !- Cooling Minimum Air Flow {m3/s}
  ,                                       !- Cooling Minimum Air Flow Fraction
  DesignDay,                              !- Heating Design Air Flow Method
  ,                                       !- Heating Design Air Flow Rate {m3/s}
  ,                                       !- Heating Maximum Air Flow per Zone Floor Area {m3/s-m2}
  ,                                       !- Heating Maximum Air Flow {m3/s}
  ,                                       !- Heating Maximum Air Flow Fraction
  No,                                     !- Account for Dedicated Outdoor Air System
  NeutralSupplyAir,                       !- Dedicated Outdoor Air System Control Strategy
  autosize,                               !- Dedicated Outdoor Air Low Setpoint Temperature for Design {C}
  autosize,                               !- Dedicated Outdoor Air High Setpoint Temperature for Design {C}
  Sensible Load Only No Latent Load,      !- Zone Load Sizing Method
  HumidityRatioDifference,                !- Zone Latent Cooling Design Supply Air Humidity Ratio Input Method
  ,                                       !- Zone Dehumidification Design Supply Air Humidity Ratio {kgWater/kgDryAir}
  0.005,                                  !- Zone Cooling Design Supply Air Humidity Ratio Difference {kgWater/kgDryAir}
  HumidityRatioDifference,                !- Zone Latent Heating Design Supply Air Humidity Ratio Input Method
  ,                                       !- Zone Humidification Design Supply Air Humidity Ratio {kgWater/kgDryAir}
  0.005,                                  !- Zone Humidification Design Supply Air Humidity Ratio Difference {kgWater/kgDryAir}
  ,                                       !- Zone Humidistat Dehumidification Set Point Schedule Name
  ,                                       !- Zone Humidistat Humidification Set Point Schedule Name
  ,                                       !- Design Zone Air Distribution Effectiveness in Cooling Mode
  ,                                       !- Design Zone Air Distribution Effectiveness in Heating Mode
  ,                                       !- Design Zone Secondary Recirculation Fraction {dimensionless}
  ,                                       !- Design Minimum Zone Ventilation Efficiency {dimensionless}
  Coincident;                             !- Sizing Option

OS:ZoneHVAC:EquipmentList,
  {0b8787dd-e4be-4d78-a5a9-63a064159de7}, !- Handle
  Zone HVAC Equipment List 2,             !- Name
  {298bd949-d667-45ce-a1c9-f69e6ccf3ae5}; !- Thermal Zone

OS:AdditionalProperties,
  {050a56fe-1529-49e5-9018-c8a5350094e2}, !- Handle
  {298bd949-d667-45ce-a1c9-f69e6ccf3ae5}, !- Object Name
  ObjectType,                             !- Feature Name 1
  String,                                 !- Feature Data Type 1
  attic - vented;                         !- Feature Value 1

OS:Space,
  {7f9a77d6-c70d-4b37-8098-3cabd82814db}, !- Handle
  attic - vented 1,                       !- Name
  ,                                       !- Space Type Name
  ,                                       !- Default Construction Set Name
  ,                                       !- Default Schedule Set Name
  ,                                       !- Direction of Relative North {deg}
  ,                                       !- X Origin {m}
  ,                                       !- Y Origin {m}
  ,                                       !- Z Origin {m}
  ,                                       !- Building Story Name
  {298bd949-d667-45ce-a1c9-f69e6ccf3ae5}, !- Thermal Zone Name
  ,                                       !- Part of Total Floor Area
  ,                                       !- Design Specification Outdoor Air Object Name
  ,                                       !- Building Unit Name
  68.5839116251789;                       !- Volume {m3}

OS:Material,
  {eb5e3c9e-65e8-4cc5-8572-93ad64682bc9}, !- Handle
  asphalt or fiberglass shingles,         !- Name
  Rough,                                  !- Roughness
  0.00635,                                !- Thickness {m}
  0.162714,                               !- Conductivity {W/m-K}
  1121.4,                                 !- Density {kg/m3}
  1465.45,                                !- Specific Heat {J/kg-K}
  0.9,                                    !- Thermal Absorptance
  0.85,                                   !- Solar Absorptance