
OS:Version,
  {4307bd51-a536-49cd-a84b-8cb85caf738b}, !- Handle
  3.10.0;                                 !- Version Identifier

OS:SimulationControl,
  {e4ef5849-cc9a-4da4-82eb-8091ace96a69}, !- Handle
  ,                                       !- Do Zone Sizing Calculation
  ,                                       !- Do System Sizing Calculation
  ,                                       !- Do Plant Sizing Calculation
  No;                                     !- Run Simulation for Sizing Periods

OS:Timestep,
  {632a1ae2-99a9-4ce7-86a7-8cac20ba0273}, !- Handle
  1;                                      !- Number of Timesteps per Hour

OS:ShadowCalculation,
  {52ff9104-63bf-4b43-9328-e751ef2e9d96}, !- Handle
  PolygonClipping,                        !- Shading Calculation Method
  ,                                       !- Shading Calculation Update Frequency Method
  20,                                     !- Shading Calculation Update Frequency
  200,                                    !- Maximum Figures in Shadow Overlap Calculations
  ,                                       !- Polygon Clipping Algorithm
  512,                                    !- Pixel Counting Resolution
  ,                                       !- Sky Diffuse Modeling Algorithm
  No,                                     !- Output External Shading Calculation Results
  No,                                     !- Disable Self-Shading Within Shading Zone Groups
  No;                                     !- Disable Self-Shading From Shading Zone Groups to Other Zones

OS:SurfaceConvectionAlgorithm:Outside,
  {32cb3e24-3587-4ab0-ad32-fb7cbe973a4d}, !- Handle
  DOE-2;                                  !- Algorithm

OS:SurfaceConvectionAlgorithm:Inside,
  {ab3b775d-b21d-469f-83bc-ccd6fd115168}, !- Handle
  TARP;                                   !- Algorithm

OS:ZoneCapacitanceMultiplier:ResearchSpecial,
  {ce05dce3-c644-4aaa-b4f9-650e9056431c}, !- Handle
  7,                                      !- Temperature Capacity Multiplier
  15,                                     !- Humidity Capacity Multiplier
  ;                                       !- Carbon Dioxide Capacity Multiplier

OS:ConvergenceLimits,
  {5d672d48-dc61-4478-a974-0657b3927707}, !- Handle
  0;                                      !- Minimum System Timestep {minutes}

OS:RunPeriod,
  {a644965e-c10f-4025-a840-a0f425ef5427}, !- Handle
  Run Period 1,                           !- Name
  1,                                      !- Begin Month
  1,                                      !- Begin Day of Month
  12,                                     !- End Month
  31,                                     !- End Day of Month
  ,                                       !- Use Weather File Holidays and Special Days
  ,                                       !- Use Weather File Daylight Saving Period
  ,                                       !- Apply Weekend Holiday Rule
  ,                                       !- Use Weather File Rain Indicators
  ,                                       !- Use Weather File Snow Indicators
  ;                                       !- Number of Times Runperiod to be Repeated

OS:PerformancePrecisionTradeoffs,
  {c0513bab-686b-4abd-ad6b-6017c070405a}, !- Handle
  ,                                       !- Use Coil Direct Solutions
  CarrollMRT;                             !- Zone Radiant Exchange Algorithm

OS:WeatherFile,
  {9fdb787e-8cf9-47ec-9653-126c76cf51fa}, !- Handle
  Buffalo Niagara Intl Ap,                !- City
  NY,                                     !- State Province Region
  USA,                                    !- Country
  TMY3,                                   !- Data Source
  725280,                                 !- WMO Number
  42.93,                                  !- Latitude {deg}
  -78.73,                                 !- Longitude {deg}
  -5,                                     !- Time Zone {hr}
  215,                                    !- Elevation {m}
  /Users/nmoore/github/urbanopt-example-geojson-project/example_project/weather/USA_NY_Buffalo-Greater.Buffalo.Intl.AP.725280_TMY3.epw, !- Url
  6B50E0FF,                               !- Checksum
  ,                                       !- Start Date Actual Year
  Sunday;                                 !- Start Day of Week

OS:YearDescription,
  {2e286ba1-b569-4f4f-b0a7-a89c0ce33ac4}, !- Handle
  2007,                                   !- Calendar Year
  ,                                       !- Day of Week for Start Day
  ;                                       !- Is Leap Year

OS:Site,
  {879e889b-15f3-4baf-95c6-4e5758e0a099}, !- Handle
  Buffalo Niagara Intl Ap_NY,             !- Name
  42.93,                                  !- Latitude {deg}
  -78.73,                                 !- Longitude {deg}
  -5,                                     !- Time Zone {hr}
  215,                                    !- Elevation {m}
  Suburbs,                                !- Terrain
  Yes;                                    !- Keep Site Location Information

OS:RunPeriodControl:DaylightSavingTime,
  {85cd55a6-f647-462d-9762-39d0dcfae957}, !- Handle
  Mar 12,                                 !- Start Date
  Nov 5;                                  !- End Date

OS:Site:GroundTemperature:Shallow,
  {3809cf4b-6d16-442d-a3a4-913b615f9b40}, !- Handle
  4.30207395723828,                       !- January Surface Ground Temperature {C}
  2.29327249652502,                       !- February Surface Ground Temperature {C}
  2.13240047156047,                       !- March Surface Ground Temperature {C}
  3.08567940719286,                       !- April Surface Ground Temperature {C}
  6.91256312497526,                       !- May Surface Ground Temperature {C}
  10.7216195949507,                       !- June Surface Ground Temperature {C}
  14.0238679822574,                       !- July Surface Ground Temperature {C}
  16.1157611184724,                       !- August Surface Ground Temperature {C}
  16.2934789303462,                       !- September Surface Ground Temperature {C}
  14.5920754632847,                       !- October Surface Ground Temperature {C}
  11.374036348653,                        !- November Surface Ground Temperature {C}
  7.68182621661674;                       !- December Surface Ground Temperature {C}

OS:ThermalZone,
  {5850e98f-dc2f-4b2a-98cf-cd32c6be02d3}, !- Handle
  conditioned space,                      !- Name
  1,                                      !- Multiplier
  ,                                       !- Ceiling Height {m}
  346.03186535424,                        !- Volume {m3}
  ,                                       !- Floor Area {m2}
  ,                                       !- Zone Inside Convection Algorithm
  ,                                       !- Zone Outside Convection Algorithm
  ,                                       !- Zone Conditioning Equipment List Name
  {8c8a5da0-4250-43af-8df3-85bbf4e8b924}, !- Zone Air Inlet Port List
  {05c4d73f-fa70-4098-9c04-77f02ea604f9}, !- Zone Air Exhaust Port List
  {c59363da-3d85-464c-901c-86f77b50f8fb}, !- Zone Air Node Name
  {d20684e4-c1cf-494b-b557-a1dbad3dc9e7}, !- Zone Return Air Port List
  ,                                       !- Primary Daylighting Control Name
  ,                                       !- Fraction of Zone Controlled by Primary Daylighting Control
  ,                                       !- Secondary Daylighting Control Name
  ,                                       !- Fraction of Zone Controlled by Secondary Daylighting Control
  ,                                       !- Illuminance Map Name
  ,                                       !- Group Rendering Name
  {8cabcb4c-d791-4426-9973-59f332264f22}, !- Thermostat Name
  No;                                     !- Use Ideal Air Loads

OS:Node,
  {ed1d5087-ad90-44b6-8953-bffb1781ecdf}, !- Handle
  Node 1,                                 !- Name
  {c59363da-3d85-464c-901c-86f77b50f8fb}, !- Inlet Port
  ;                                       !- Outlet Port

OS:Connection,
  {c59363da-3d85-464c-901c-86f77b50f8fb}, !- Handle
  {5850e98f-dc2f-4b2a-98cf-cd32c6be02d3}, !- Source Object
  11,                                     !- Outlet Port
  {ed1d5087-ad90-44b6-8953-bffb1781ecdf}, !- Target Object
  2;                                      !- Inlet Port

OS:PortList,
  {8c8a5da0-4250-43af-8df3-85bbf4e8b924}, !- Handle
  {5850e98f-dc2f-4b2a-98cf-cd32c6be02d3}, !- HVAC Component
  {b7fe3be8-0e64-4aa1-95ae-61493f0b7458}; !- Port 1

OS:PortList,
  {05c4d73f-fa70-4098-9c04-77f02ea604f9}, !- Handle
  {5850e98f-dc2f-4b2a-98cf-cd32c6be02d3}; !- HVAC Component

OS:PortList,
  {d20684e4-c1cf-494b-b557-a1dbad3dc9e7}, !- Handle
  {5850e98f-dc2f-4b2a-98cf-cd32c6be02d3}, !- HVAC Component
  {8a6cdb0a-d832-4909-a95e-9c122edf8d68}; !- Port 1

OS:Sizing:Zone,
  {4d0867c8-8156-4942-9f74-03e334e7a7f8}, !- Handle
  {5850e98f-dc2f-4b2a-98cf-cd32c6be02d3}, !- Zone or ZoneList Name
  SupplyAirTemperature,                   !- Zone Cooling Design Supply Air Temperature Input Method
  14,                                     !- Zone Cooling Design Supply Air Temperature {C}
  11.11,                                  !- Zone Cooling Design Supply Air Temperature Difference {deltaC}
  SupplyAirTemperature,                   !- Zone Heating Design Supply Air Temperature Input Method
  40,                                     !- Zone Heating Design Supply Air Temperature {C}
  11.11,                                  !- Zone Heating Design Supply Air Temperature Difference {deltaC}
  0.0085,                                 !- Zone Cooling Design Supply Air Humidity Ratio {kg-H2O/kg-air}
  0.008,                                  !- Zone Heating Design Supply Air Humidity Ratio {kg-H2O/kg-air}
  ,                                       !- Zone Heating Sizing Factor
  ,                                       !- Zone Cooling Sizing Factor
  DesignDay,                              !- Cooling Design Air Flow Method
  ,                                       !- Cooling Design Air Flow Rate {m3/s}
  ,                                       !- Cooling Minimum Air Flow per Zone Floor Area {m3/s-m2}
  ,                                       !- Cooling Minimum Air Flow {m3/s}
  ,                                       !- Cooling Minimum Air Flow Fraction
  DesignDay,                              !- Heating Design Air Flow Method
  ,                                       !- Heating Design Air Flow Rate {m3/s}
  ,                                       !- Heating Maximum Air Flow per Zone Floor Area {m3/s-m2}
  ,                                       !- Heating Maximum Air Flow {m3/s}
  ,                                       !- Heating Maximum Air Flow Fraction
  No,                                     !- Account for Dedicated Outdoor Air System
  NeutralSupplyAir,                       !- Dedicated Outdoor Air System Control Strategy
  autosize,                               !- Dedicated Outdoor Air Low Setpoint Temperature for Design {C}
  autosize,                               !- Dedicated Outdoor Air High Setpoint Temperature for Design {C}
  Sensible Load Only No Latent Load,      !- Zone Load Sizing Method
  HumidityRatioDifference,                !- Zone Latent Cooling Design Supply Air Humidity Ratio Input Method
  ,                                       !- Zone Dehumidification Design Supply Air Humidity Ratio {kgWater/kgDryAir}
  0.005,                                  !- Zone Cooling Design Supply Air Humidity Ratio Difference {kgWater/kgDryAir}
  HumidityRatioDifference,                !- Zone Latent Heating Design Supply Air Humidity Ratio Input Method
  ,                                       !- Zone Humidification Design Supply Air Humidity Ratio {kgWater/kgDryAir}
  0.005,                                  !- Zone Humidification Design Supply Air Humidity Ratio Difference {kgWater/kgDryAir}
  ,                                       !- Zone Humidistat Dehumidification Set Point Schedule Name
  ,                                       !- Zone Humidistat Humidification Set Point Schedule Name
  ,                                       !- Design Zone Air Distribution Effectiveness in Cooling Mode
  ,                                       !- Design Zone Air Distribution Effectiveness in Heating Mode
  ,                                       !- Design Zone Secondary Recirculation Fraction {dimensionless}
  ,                                       !- Design Minimum Zone Ventilation Efficiency {dimensionless}
  Coincident;                             !- Sizing Option

OS:ZoneHVAC:EquipmentList,
  {9cdcb8f5-2fe5-4a5d-b8a6-738775ffc6d0}, !- Handle
  Zone HVAC Equipment List 1,             !- Name
  {5850e98f-dc2f-4b2a-98cf-cd32c6be02d3}, !- Thermal Zone
  ,                                       !- Load Distribution Scheme
  {b39ff3c4-e123-4db1-87f2-a0eeaf11c164}, !- Zone Equipment 1
  1,                                      !- Zone Equipment Cooling Sequence 1
  1,                                      !- Zone Equipment Heating or No-Load Sequence 1
  {09c91579-89ef-4356-abd6-44f503d5c72a}, !- Zone Equipment Sequential Cooling Fraction Schedule Name 1
  {d782a833-ce6f-415e-aff9-3c8697a8ad0c}; !- Zone Equipment Sequential Heating Fraction Schedule Name 1

OS:AdditionalProperties,
  {af4f1d39-fc36-4220-bf43-73bded2ffef0}, !- Handle
  {5850e98f-dc2f-4b2a-98cf-cd32c6be02d3}, !- Object Name
  ObjectType,                             !- Feature Name 1
  String,                                 !- Feature Data Type 1
  conditioned space;                      !- Feature Value 1

OS:Space,
  {e032efd9-2b5d-4f2a-9c31-ea6962652750}, !- Handle
  conditioned space 1,                    !- Name
  ,                                       !- Space Type Name
  ,                                       !- Default Construction Set Name
  ,                                       !- Default Schedule Set Name
  ,                                       !- Direction of Relative North {deg}
  ,                                       !- X Origin {m}
  ,                                       !- Y Origin {m}
  ,                                       !- Z Origin {m}
  ,                                       !- Building Story Name
  {5850e98f-dc2f-4b2a-98cf-cd32c6be02d3}, !- Thermal Zone Name
  ,                                       !- Part of Total Floor Area
  ,                                       !- Design Specification Outdoor Air Object Name
  ,                                       !- Building Unit Name
  346.03186535424;                        !- Volume {m3}

OS:Schedule:Ruleset,
  {08ebc3e8-6bff-49fd-bf78-1d32f17db4af}, !- Handle
  heating setpoint,                       !- Name
  {0e4bf7da-fb3d-4c29-87a7-debb9804deac}, !- Schedule Type Limits Name
  {c54f4872-fd01-4940-8e79-e42dbdf22384}; !- Default Day Schedule Name

OS:Schedule:Day,
  {c54f4872-fd01-4940-8e79-e42dbdf22384}, !- Handle
  heating setpoint default day,           !- Name
  {0e4bf7da-fb3d-4c29-87a7-debb9804deac}, !- Schedule Type Limits Name
  ,                                       !- Interpolate to Timestep
  24,                                     !- Hour 1
  0,                                      !- Minute 1
  0;                                      !- Value Until Time 1

OS:Schedule:Rule,
  {de16dbf2-477b-414e-9e10-2e0bc9be9597}, !- Handle
  heating setpoint allday rule,           !- Name
  {08ebc3e8-6bff-49fd-bf78-1d32f17db4af}, !- Schedule Ruleset Name
  0,                                      !- Rule Order
  {2774de2a-9f41-4b21-84bd-ad116e2723e4}, !- Day Schedule Name
  Yes,                                    !- Apply Sunday
  Yes,                                    !- Apply Monday
  Yes,                                    !- Apply Tuesday
  Yes,                                    !- Apply Wednesday
  Yes,                                    !- Apply Thursday
  Yes,                                    !- Apply Friday
  Yes,                                    !- Apply Saturday
  DateRange,                              !- Date Specification Type
  1,                                      !- Start Month
  1,                                      !- Start Day
  12,                                     !- End Month
  31;                                     !- End Day

OS:Schedule:Day,
  {2774de2a-9f41-4b21-84bd-ad116e2723e4}, !- Handle
  heating setpoint day,                   !- Name
  {0e4bf7da-fb3d-4c29-87a7-debb9804deac}, !- Schedule Type Limits Name
  ,                                       !- Interpolate to Timestep
  24,                                     !- Hour 1
  0,                                      !- Minute 1
  20;                                     !- Value Until Time 1

OS:Schedule:Ruleset,
  {477825e3-43fb-4267-a980-fe4d3515b057}, !- Handle
  cooling setpoint,                       !- Name
  {0e4bf7da-fb3d-4c29-87a7-debb9804deac}, !- Schedule Type Limits Name
  {51c76726-27c4-4182-bfe0-21daacd1eadc}; !- Default Day Schedule Name

OS:Schedule:Day,
  {51c76726-27c4-4182-bfe0-21daacd1eadc}, !- Handle
  cooling setpoint default day,           !- Name
  {0e4bf7da-fb3d-4c29-87a7-debb9804deac}, !- Schedule Type Limits Name
  ,                                       !- Interpolate to Timestep
  24,                                     !- Hour 1
  0,                                      !- Minute 1
  0;                                      !- Value Until Time 1

OS:Schedule:Rule,
  {0c53ee59-90cc-4ced-b965-83d9db010b69}, !- Handle
  cooling setpoint allday rule,           !- Name
  {477825e3-43fb-4267-a980-fe4d3515b057}, !- Schedule Ruleset Name
  0,                                      !- Rule Order
  {51f8cbe0-9e86-4256-9a82-4abeebf47c30}, !- Day Schedule Name
  Yes,                                    !- Apply Sunday
  Yes,                                    !- Apply Monday
  Yes,                                    !- Apply Tuesday
  Yes,                                    !- Apply Wednesday
  Yes,                                    !- Apply Thursday
  Yes,                                    !- Apply Friday
  Yes,                                    !- Apply Saturday
  DateRange,                              !- Date Specification Type
  1,                                      !- Start Month
  1,                                      !- Start Day
  12,                                     !- End Month
  31;                                     !- End Day

OS:Schedule:Day,
  {51f8cbe0-9e86-4256-9a82-4abeebf47c30}, !- Handle
  cooling setpoint day,                   !- Name
  {0e4bf7da-fb3d-4c29-87a7-debb9804deac}, !- Schedule Type Limits Name
  ,                                       !- Interpolate to Timestep
  24,                                     !- Hour 1
  0,                                      !- Minute 1
  25.5555555555556;                       !- Value Until Time 1

OS:ThermostatSetpoint:DualSetpoint,
  {8cabcb4c-d791-4426-9973-59f332264f22}, !- Handle
  conditioned space temperature setpoint, !- Name
  {08ebc3e8-6bff-49fd-bf78-1d32f17db4af}, !- Heating Setpoint Temperature Schedule Name
  {477825e3-43fb-4267-a980-fe4d3515b057}, !- Cooling Setpoint Temperature Schedule Name
  0;                                      !- Temperature Difference Between Cutout And Setpoint {deltaC}

OS:ScheduleTypeLimits,
  {0e4bf7da-fb3d-4c29-87a7-debb9804deac}, !- Handle
  Temperature,                            !- Name
  ,                                       !- Lower Limit Value
  ,                                       !- Upper Limit Value
  Continuous,                             !- Numeric Type
  Temperature;                            !- Unit Type

OS:Surface,
  {c2bd653f-3887-4fdf-9fff-63f843ba18f9}, !- Handle
  Roof1,                                  !- Name
  RoofCeiling,                            !- Surface Type
  {12a95d03-fcba-403a-99e4-5d42ebd5f7df}, !- Construction Name
  {e526864b-90ea-4651-92d5-729c0f0253f4}, !- Space Name
  Outdoors,                               !- Outside Boundary Condition
  ,                                       !- Outside Boundary Condition Object
  SunExposed,                             !- Sun Exposure
  WindExposed,                            !- Wind Exposure
  ,                                       !- View Factor to Ground
  ,                                       !- Number of Vertices
  -20.3643750774516, 29.0994858774516, 2.4384, !- X,Y,Z Vertex 1 {m}
  -20.3643750774516, 22.5947368017685, 5.69077453784155, !- X,Y,Z Vertex 2 {m}
  -13.0918445225484, 22.5947368017685, 5.69077453784155, !- X,Y,Z Vertex 3 {m}
  -13.0918445225484, 29.0994858774516, 2.4384; !- X,Y,Z Vertex 4 {m}

OS:AdditionalProperties,
  {aba680c3-8f3c-440b-86c5-cee12c638bd5}, !- Handle
  {c2bd653f-3887-4fdf-9fff-63f843ba18f9}, !- Object Name
  Length,                                 !- Feature Name 1
  Double,                                 !- Feature Data Type 1
  23.860008382228202,                     !- Feature Value 1
  Width,                                  !- Feature Name 2
  Double,                                 !- Feature Data Type 2
  23.860008382228198,                     !- Feature Value 2
  Azimuth,                                !- Feature Name 3
  Integer,                                !- Feature Data Type 3
  0,                                      !- Feature Value 3
  Tilt,                                   !- Feature Name 4
  Double,                                 !- Feature Data Type 4
  0.5,                                    !- Feature Value 4
  SurfaceType,                            !- Feature Name 5
  String,                                 !- Feature Data Type 5
  Roof;                                   !- Feature Value 5

OS:ThermalZone,
  {8b1a1263-0438-4818-83a9-ace52bb91023}, !- Handle
  attic - vented,                         !- Name
  1,                                      !- Multiplier
  ,                                       !- Ceiling Height {m}
  68.5934891814199,                       !- Volume {m3}
  ,                                       !- Floor Area {m2}
  ,                                       !- Zone Inside Convection Algorithm
  ,                                       !- Zone Outside Convection Algorithm
  ,                                       !- Zone Conditioning Equipment List Name
  {112cb76c-073d-4988-b2af-d6861fbcc3f2}, !- Zone Air Inlet Port List
  {efbb6014-f038-41cc-8fa6-0c280889cbcd}, !- Zone Air Exhaust Port List
  {f4107a56-7f22-4814-8d4f-51f1c7686dff}, !- Zone Air Node Name
  {1342da9b-6dd0-4c31-bb2e-70a81f76fc2c}, !- Zone Return Air Port List
  ,                                       !- Primary Daylighting Control Name
  ,                                       !- Fraction of Zone Controlled by Primary Daylighting Control
  ,                                       !- Secondary Daylighting Control Name
  ,                                       !- Fraction of Zone Controlled by Secondary Daylighting Control
  ,                                       !- Illuminance Map Name
  ,                                       !- Group Rendering Name
  ,                                       !- Thermostat Name
  No;                                     !- Use Ideal Air Loads

OS:Node,
  {a7581525-ef35-496f-afda-1aec5a6abbc6}, !- Handle
  Node 2,                                 !- Name
  {f4107a56-7f22-4814-8d4f-51f1c7686dff}, !- Inlet Port
  ;                                       !- Outlet Port

OS:Connection,
  {f4107a56-7f22-4814-8d4f-51f1c7686dff}, !- Handle
  {8b1a1263-0438-4818-83a9-ace52bb91023}, !- Source Object
  11,                                     !- Outlet Port
  {a7581525-ef35-496f-afda-1aec5a6abbc6}, !- Target Object
  2;                                      !- Inlet Port

OS:PortList,
  {112cb76c-073d-4988-b2af-d6861fbcc3f2}, !- Handle
  {8b1a1263-0438-4818-83a9-ace52bb91023}; !- HVAC Component

OS:PortList,
  {efbb6014-f038-41cc-8fa6-0c280889cbcd}, !- Handle
  {8b1a1263-0438-4818-83a9-ace52bb91023}; !- HVAC Component

OS:PortList,
  {1342da9b-6dd0-4c31-bb2e-70a81f76fc2c}, !- Handle
  {8b1a1263-0438-4818-83a9-ace52bb91023}; !- HVAC Component

OS:Sizing:Zone,
  {011e9af9-349c-4ca6-a272-14664c10943e}, !- Handle
  {8b1a1263-0438-4818-83a9-ace52bb91023}, !- Zone or ZoneList Name
  SupplyAirTemperature,                   !- Zone Cooling Design Supply Air Temperature Input Method
  14,                                     !- Zone Cooling Design Supply Air Temperature {C}
  11.11,                                  !- Zone Cooling Design Supply Air Temperature Difference {deltaC}
  SupplyAirTemperature,                   !- Zone Heating Design Supply Air Temperature Input Method
  40,                                     !- Zone Heating Design Supply Air Temperature {C}
  11.11,                                  !- Zone Heating Design Supply Air Temperature Difference {deltaC}
  0.0085,                                 !- Zone Cooling Design Supply Air Humidity Ratio {kg-H2O/kg-air}
  0.008,                                  !- Zone Heating Design Supply Air Humidity Ratio {kg-H2O/kg-air}
  ,                                       !- Zone Heating Sizing Factor
  ,                                       !- Zone Cooling Sizing Factor
  DesignDay,                              !- Cooling Design Air Flow Method
  ,                                       !- Cooling Design Air Flow Rate {m3/s}
  ,                                       !- Cooling Minimum Air Flow per Zone Floor Area {m3/s-m2}
  ,                                       !- Cooling Minimum Air Flow {m3/s}
  ,                                       !- Cooling Minimum Air Flow Fraction
  DesignDay,                              !- Heating Design Air Flow Method
  ,                                       !- Heating Design Air Flow Rate {m3/s}
  ,                                       !- Heating Maximum Air Flow per Zone Floor Area {m3/s-m2}
  ,                                       !- Heating Maximum Air Flow {m3/s}
  ,                                       !- Heating Maximum Air Flow Fraction
  No,                                     !- Account for Dedicated Outdoor Air System
  NeutralSupplyAir,                       !- Dedicated Outdoor Air System Control Strategy
  autosize,                               !- Dedicated Outdoor Air Low Setpoint Temperature for Design {C}
  autosize,                               !- Dedicated Outdoor Air High Setpoint Temperature for Design {C}
  Sensible Load Only No Latent Load,      !- Zone Load Sizing Method
  HumidityRatioDifference,                !- Zone Latent Cooling Design Supply Air Humidity Ratio Input Method
  ,                                       !- Zone Dehumidification Design Supply Air Humidity Ratio {kgWater/kgDryAir}
  0.005,                                  !- Zone Cooling Design Supply Air Humidity Ratio Difference {kgWater/kgDryAir}
  HumidityRatioDifference,                !- Zone Latent Heating Design Supply Air Humidity Ratio Input Method
  ,                                       !- Zone Humidification Design Supply Air Humidity Ratio {kgWater/kgDryAir}
  0.005,                                  !- Zone Humidification Design Supply Air Humidity Ratio Difference {kgWater/kgDryAir}
  ,                                       !- Zone Humidistat Dehumidification Set Point Schedule Name
  ,                                       !- Zone Humidistat Humidification Set Point Schedule Name
  ,                                       !- Design Zone Air Distribution Effectiveness in Cooling Mode
  ,                                       !- Design Zone Air Distribution Effectiveness in Heating Mode
  ,                                       !- Design Zone Secondary Recirculation Fraction {dimensionless}
  ,                                       !- Design Minimum Zone Ventilation Efficiency {dimensionless}
  Coincident;                             !- Sizing Option

OS:ZoneHVAC:EquipmentList,
  {8d03e1d0-95ca-478f-a0a8-9d082ab9c3e9}, !- Handle
  Zone HVAC Equipment List 2,             !- Name
  {8b1a1263-0438-4818-83a9-ace52bb91023}; !- Thermal Zone

OS:AdditionalProperties,
  {9cf6da7f-950b-4d54-a012-1f92c9ab5da0}, !- Handle
  {8b1a1263-0438-4818-83a9-ace52bb91023}, !- Object Name
  ObjectType,                             !- Feature Name 1
  String,                                 !- Feature Data Type 1
  attic - vented;                         !- Feature Value 1

OS:Space,
  {e526864b-90ea-4651-92d5-729c0f0253f4}, !- Handle
  attic - vented 1,                       !- Name
  ,                                       !- Space Type Name
  ,                                       !- Default Construction Set Name
  ,                                       !- Default Schedule Set Name
  ,                                       !- Direction of Relative North {deg}
  ,                                       !- X Origin {m}
  ,                                       !- Y Origin {m}
  ,                                       !- Z Origin {m}
  ,                                       !- Building Story Name
  {8b1a1263-0438-4818-83a9-ace52bb91023}, !- Thermal Zone Name
  ,                                       !- Part of Total Floor Area
  ,                                       !- Design Specification Outdoor Air Object Name
  ,                                       !- Building Unit Name
  68.5934891814199;                       !- Volume {m3}

OS:Material,
  {f954bbbe-54fd-468d-890c-9602020db13f}, !- Handle
  asphalt or fiberglass shingles,         !- Name
  Rough,                                  !- Roughness
  0.00635,                                !- Thickness {m}
  0.162714,                               !- Conductivity {W/m-K}
  1121.4,                                 !- Density {kg/m3}
  1465.45,                                !- Specific Heat {J/kg-K}
  0.9,                                    !- Thermal Absorptance
  0.85,                                   !- Solar Absorptance