
OS:Version,
  {04b25dd5-abf7-4667-9bf8-d88103828924}, !- Handle
  3.10.0;                                 !- Version Identifier

OS:SimulationControl,
  {3e315097-7e09-4ccd-9f55-a09231713faa}, !- Handle
  ,                                       !- Do Zone Sizing Calculation
  ,                                       !- Do System Sizing Calculation
  ,                                       !- Do Plant Sizing Calculation
  No;                                     !- Run Simulation for Sizing Periods

OS:Timestep,
  {e7b7245a-5319-45fc-bf65-639c45b01e0c}, !- Handle
  1;                                      !- Number of Timesteps per Hour

OS:ShadowCalculation,
  {8ea9c9da-3199-4b6c-a8d6-8dec24126d61}, !- Handle
  PolygonClipping,                        !- Shading Calculation Method
  ,                                       !- Shading Calculation Update Frequency Method
  20,                                     !- Shading Calculation Update Frequency
  200,                                    !- Maximum Figures in Shadow Overlap Calculations
  ,                                       !- Polygon Clipping Algorithm
  512,                                    !- Pixel Counting Resolution
  ,                                       !- Sky Diffuse Modeling Algorithm
  No,                                     !- Output External Shading Calculation Results
  No,                                     !- Disable Self-Shading Within Shading Zone Groups
  No;                                     !- Disable Self-Shading From Shading Zone Groups to Other Zones

OS:SurfaceConvectionAlgorithm:Outside,
  {1ba6048d-e8d9-465f-9209-9652979a66fa}, !- Handle
  DOE-2;                                  !- Algorithm

OS:SurfaceConvectionAlgorithm:Inside,
  {3fc363e2-9faf-4e49-aa37-0d9c5b0f109b}, !- Handle
  TARP;                                   !- Algorithm

OS:ZoneCapacitanceMultiplier:ResearchSpecial,
  {5b2cc91a-fcef-4a38-adb4-bba33e98b234}, !- Handle
  7,                                      !- Temperature Capacity Multiplier
  15,                                     !- Humidity Capacity Multiplier
  ;                                       !- Carbon Dioxide Capacity Multiplier

OS:ConvergenceLimits,
  {f434edfc-3816-41a6-90ab-703f8fddd44c}, !- Handle
  0;                                      !- Minimum System Timestep {minutes}

OS:RunPeriod,
  {324b7d4e-839a-4680-a45e-cb8532fdcb98}, !- Handle
  Run Period 1,                           !- Name
  1,                                      !- Begin Month
  1,                                      !- Begin Day of Month
  12,                                     !- End Month
  31,                                     !- End Day of Month
  ,                                       !- Use Weather File Holidays and Special Days
  ,                                       !- Use Weather File Daylight Saving Period
  ,                                       !- Apply Weekend Holiday Rule
  ,                                       !- Use Weather File Rain Indicators
  ,                                       !- Use Weather File Snow Indicators
  ;                                       !- Number of Times Runperiod to be Repeated

OS:PerformancePrecisionTradeoffs,
  {7d631c7a-34b0-4db9-9f44-15bd56c86e94}, !- Handle
  ,                                       !- Use Coil Direct Solutions
  CarrollMRT;                             !- Zone Radiant Exchange Algorithm

OS:WeatherFile,
  {044a2893-f6ea-4d91-9140-3d9b122fdb1c}, !- Handle
  Buffalo Niagara Intl Ap,                !- City
  NY,                                     !- State Province Region
  USA,                                    !- Country
  TMY3,                                   !- Data Source
  725280,                                 !- WMO Number
  42.93,                                  !- Latitude {deg}
  -78.73,                                 !- Longitude {deg}
  -5,                                     !- Time Zone {hr}
  215,                                    !- Elevation {m}
  /Users/nmoore/github/urbanopt-example-geojson-project/example_project/weather/USA_NY_Buffalo-Greater.Buffalo.Intl.AP.725280_TMY3.epw, !- Url
  6B50E0FF,                               !- Checksum
  ,                                       !- Start Date Actual Year
  Sunday;                                 !- Start Day of Week

OS:YearDescription,
  {876e31f4-0623-48af-bf5f-e867af4eb257}, !- Handle
  2007,                                   !- Calendar Year
  ,                                       !- Day of Week for Start Day
  ;                                       !- Is Leap Year

OS:Site,
  {f24eb9e6-cd5e-4842-b59c-24740fd91637}, !- Handle
  Buffalo Niagara Intl Ap_NY,             !- Name
  42.93,                                  !- Latitude {deg}
  -78.73,                                 !- Longitude {deg}
  -5,                                     !- Time Zone {hr}
  215,                                    !- Elevation {m}
  Suburbs,                                !- Terrain
  Yes;                                    !- Keep Site Location Information

OS:RunPeriodControl:DaylightSavingTime,
  {a10f5241-5e61-469e-9cc6-f01b624e1f51}, !- Handle
  Mar 12,                                 !- Start Date
  Nov 5;                                  !- End Date

OS:Site:GroundTemperature:Shallow,
  {0c4b088e-fcd1-4beb-ba36-9f09c8cb29a0}, !- Handle
  4.30207395723828,                       !- January Surface Ground Temperature {C}
  2.29327249652502,                       !- February Surface Ground Temperature {C}
  2.13240047156047,                       !- March Surface Ground Temperature {C}
  3.08567940719286,                       !- April Surface Ground Temperature {C}
  6.91256312497526,                       !- May Surface Ground Temperature {C}
  10.7216195949507,                       !- June Surface Ground Temperature {C}
  14.0238679822574,                       !- July Surface Ground Temperature {C}
  16.1157611184724,                       !- August Surface Ground Temperature {C}
  16.2934789303462,                       !- September Surface Ground Temperature {C}
  14.5920754632847,                       !- October Surface Ground Temperature {C}
  11.374036348653,                        !- November Surface Ground Temperature {C}
  7.68182621661674;                       !- December Surface Ground Temperature {C}

OS:ThermalZone,
  {6d0f2b31-1f52-44e1-b980-ffc888869a5c}, !- Handle
  conditioned space,                      !- Name
  1,                                      !- Multiplier
  ,                                       !- Ceiling Height {m}
  346.03186535424,                        !- Volume {m3}
  ,                                       !- Floor Area {m2}
  ,                                       !- Zone Inside Convection Algorithm
  ,                                       !- Zone Outside Convection Algorithm
  ,                                       !- Zone Conditioning Equipment List Name
  {5af2cbe1-f79a-4b5f-a4a6-8f4df736a34e}, !- Zone Air Inlet Port List
  {d5f9060e-301c-431f-96a4-c3485a3a0f98}, !- Zone Air Exhaust Port List
  {54ca4dcf-3bf2-4771-acc9-b9822f158dae}, !- Zone Air Node Name
  {05c2a44f-f0b0-42fc-85c6-8ce0b55ac7f4}, !- Zone Return Air Port List
  ,                                       !- Primary Daylighting Control Name
  ,                                       !- Fraction of Zone Controlled by Primary Daylighting Control
  ,                                       !- Secondary Daylighting Control Name
  ,                                       !- Fraction of Zone Controlled by Secondary Daylighting Control
  ,                                       !- Illuminance Map Name
  ,                                       !- Group Rendering Name
  {4d75adb9-14d4-4dda-9f3d-a615ff908d15}, !- Thermostat Name
  No;                                     !- Use Ideal Air Loads

OS:Node,
  {66a040cc-94f3-422d-b1d8-bf3bbfd03175}, !- Handle
  Node 1,                                 !- Name
  {54ca4dcf-3bf2-4771-acc9-b9822f158dae}, !- Inlet Port
  ;                                       !- Outlet Port

OS:Connection,
  {54ca4dcf-3bf2-4771-acc9-b9822f158dae}, !- Handle
  {6d0f2b31-1f52-44e1-b980-ffc888869a5c}, !- Source Object
  11,                                     !- Outlet Port
  {66a040cc-94f3-422d-b1d8-bf3bbfd03175}, !- Target Object
  2;                                      !- Inlet Port

OS:PortList,
  {5af2cbe1-f79a-4b5f-a4a6-8f4df736a34e}, !- Handle
  {6d0f2b31-1f52-44e1-b980-ffc888869a5c}, !- HVAC Component
  {f3fad6f7-e3d9-4a3f-9b60-697ed443ca51}; !- Port 1

OS:PortList,
  {d5f9060e-301c-431f-96a4-c3485a3a0f98}, !- Handle
  {6d0f2b31-1f52-44e1-b980-ffc888869a5c}; !- HVAC Component

OS:PortList,
  {05c2a44f-f0b0-42fc-85c6-8ce0b55ac7f4}, !- Handle
  {6d0f2b31-1f52-44e1-b980-ffc888869a5c}, !- HVAC Component
  {2edebcf9-8143-465d-980d-a8c0600772a8}; !- Port 1

OS:Sizing:Zone,
  {4301310d-3d62-407e-a6a3-86f8d1434391}, !- Handle
  {6d0f2b31-1f52-44e1-b980-ffc888869a5c}, !- Zone or ZoneList Name
  SupplyAirTemperature,                   !- Zone Cooling Design Supply Air Temperature Input Method
  14,                                     !- Zone Cooling Design Supply Air Temperature {C}
  11.11,                                  !- Zone Cooling Design Supply Air Temperature Difference {deltaC}
  SupplyAirTemperature,                   !- Zone Heating Design Supply Air Temperature Input Method
  40,                                     !- Zone Heating Design Supply Air Temperature {C}
  11.11,                                  !- Zone Heating Design Supply Air Temperature Difference {deltaC}
  0.0085,                                 !- Zone Cooling Design Supply Air Humidity Ratio {kg-H2O/kg-air}
  0.008,                                  !- Zone Heating Design Supply Air Humidity Ratio {kg-H2O/kg-air}
  ,                                       !- Zone Heating Sizing Factor
  ,                                       !- Zone Cooling Sizing Factor
  DesignDay,                              !- Cooling Design Air Flow Method
  ,                                       !- Cooling Design Air Flow Rate {m3/s}
  ,                                       !- Cooling Minimum Air Flow per Zone Floor Area {m3/s-m2}
  ,                                       !- Cooling Minimum Air Flow {m3/s}
  ,                                       !- Cooling Minimum Air Flow Fraction
  DesignDay,                              !- Heating Design Air Flow Method
  ,                                       !- Heating Design Air Flow Rate {m3/s}
  ,                                       !- Heating Maximum Air Flow per Zone Floor Area {m3/s-m2}
  ,                                       !- Heating Maximum Air Flow {m3/s}
  ,                                       !- Heating Maximum Air Flow Fraction
  No,                                     !- Account for Dedicated Outdoor Air System
  NeutralSupplyAir,                       !- Dedicated Outdoor Air System Control Strategy
  autosize,                               !- Dedicated Outdoor Air Low Setpoint Temperature for Design {C}
  autosize,                               !- Dedicated Outdoor Air High Setpoint Temperature for Design {C}
  Sensible Load Only No Latent Load,      !- Zone Load Sizing Method
  HumidityRatioDifference,                !- Zone Latent Cooling Design Supply Air Humidity Ratio Input Method
  ,                                       !- Zone Dehumidification Design Supply Air Humidity Ratio {kgWater/kgDryAir}
  0.005,                                  !- Zone Cooling Design Supply Air Humidity Ratio Difference {kgWater/kgDryAir}
  HumidityRatioDifference,                !- Zone Latent Heating Design Supply Air Humidity Ratio Input Method
  ,                                       !- Zone Humidification Design Supply Air Humidity Ratio {kgWater/kgDryAir}
  0.005,                                  !- Zone Humidification Design Supply Air Humidity Ratio Difference {kgWater/kgDryAir}
  ,                                       !- Zone Humidistat Dehumidification Set Point Schedule Name
  ,                                       !- Zone Humidistat Humidification Set Point Schedule Name
  ,                                       !- Design Zone Air Distribution Effectiveness in Cooling Mode
  ,                                       !- Design Zone Air Distribution Effectiveness in Heating Mode
  ,                                       !- Design Zone Secondary Recirculation Fraction {dimensionless}
  ,                                       !- Design Minimum Zone Ventilation Efficiency {dimensionless}
  Coincident;                             !- Sizing Option

OS:ZoneHVAC:EquipmentList,
  {32a5558d-5ab8-4dc4-a3ac-27d0a01b5c87}, !- Handle
  Zone HVAC Equipment List 1,             !- Name
  {6d0f2b31-1f52-44e1-b980-ffc888869a5c}, !- Thermal Zone
  ,                                       !- Load Distribution Scheme
  {87d184ef-b562-4af2-8e9d-a353fde23ede}, !- Zone Equipment 1
  1,                                      !- Zone Equipment Cooling Sequence 1
  1,                                      !- Zone Equipment Heating or No-Load Sequence 1
  {d9eb3e6f-a6ab-48b0-8d76-0428e8df504a}, !- Zone Equipment Sequential Cooling Fraction Schedule Name 1
  {446901b2-2a58-4d2e-bf99-8829e63818bd}; !- Zone Equipment Sequential Heating Fraction Schedule Name 1

OS:AdditionalProperties,
  {2efd9161-96b4-4ea1-b4f7-b02340f74e80}, !- Handle
  {6d0f2b31-1f52-44e1-b980-ffc888869a5c}, !- Object Name
  ObjectType,                             !- Feature Name 1
  String,                                 !- Feature Data Type 1
  conditioned space;                      !- Feature Value 1

OS:Space,
  {201b1e4b-65af-4244-96ae-c02ddab44af0}, !- Handle
  conditioned space 1,                    !- Name
  ,                                       !- Space Type Name
  ,                                       !- Default Construction Set Name
  ,                                       !- Default Schedule Set Name
  ,                                       !- Direction of Relative North {deg}
  ,                                       !- X Origin {m}
  ,                                       !- Y Origin {m}
  ,                                       !- Z Origin {m}
  ,                                       !- Building Story Name
  {6d0f2b31-1f52-44e1-b980-ffc888869a5c}, !- Thermal Zone Name
  ,                                       !- Part of Total Floor Area
  ,                                       !- Design Specification Outdoor Air Object Name
  ,                                       !- Building Unit Name
  346.03186535424;                        !- Volume {m3}

OS:Schedule:Ruleset,
  {8d55f989-9f0d-43f3-b599-f368cf042f98}, !- Handle
  heating setpoint,                       !- Name
  {be164406-0b4a-49b6-87ad-966522f05b6e}, !- Schedule Type Limits Name
  {fb86e4d4-5aa0-4374-8aa2-8ebced8c64a7}; !- Default Day Schedule Name

OS:Schedule:Day,
  {fb86e4d4-5aa0-4374-8aa2-8ebced8c64a7}, !- Handle
  heating setpoint default day,           !- Name
  {be164406-0b4a-49b6-87ad-966522f05b6e}, !- Schedule Type Limits Name
  ,                                       !- Interpolate to Timestep
  24,                                     !- Hour 1
  0,                                      !- Minute 1
  0;                                      !- Value Until Time 1

OS:Schedule:Rule,
  {321f30d9-0c5d-4c26-8b9c-e49f6b56a4e5}, !- Handle
  heating setpoint allday rule,           !- Name
  {8d55f989-9f0d-43f3-b599-f368cf042f98}, !- Schedule Ruleset Name
  0,                                      !- Rule Order
  {5c3cf36d-dde8-4f8a-89b1-7252cf9b6bb1}, !- Day Schedule Name
  Yes,                                    !- Apply Sunday
  Yes,                                    !- Apply Monday
  Yes,                                    !- Apply Tuesday
  Yes,                                    !- Apply Wednesday
  Yes,                                    !- Apply Thursday
  Yes,                                    !- Apply Friday
  Yes,                                    !- Apply Saturday
  DateRange,                              !- Date Specification Type
  1,                                      !- Start Month
  1,                                      !- Start Day
  12,                                     !- End Month
  31;                                     !- End Day

OS:Schedule:Day,
  {5c3cf36d-dde8-4f8a-89b1-7252cf9b6bb1}, !- Handle
  heating setpoint day,                   !- Name
  {be164406-0b4a-49b6-87ad-966522f05b6e}, !- Schedule Type Limits Name
  ,                                       !- Interpolate to Timestep
  24,                                     !- Hour 1
  0,                                      !- Minute 1
  20;                                     !- Value Until Time 1

OS:Schedule:Ruleset,
  {560b2967-31e4-4330-b65a-e33414ecb880}, !- Handle
  cooling setpoint,                       !- Name
  {be164406-0b4a-49b6-87ad-966522f05b6e}, !- Schedule Type Limits Name
  {fba6dd54-2dbd-44d6-959f-ecafa24f4697}; !- Default Day Schedule Name

OS:Schedule:Day,
  {fba6dd54-2dbd-44d6-959f-ecafa24f4697}, !- Handle
  cooling setpoint default day,           !- Name
  {be164406-0b4a-49b6-87ad-966522f05b6e}, !- Schedule Type Limits Name
  ,                                       !- Interpolate to Timestep
  24,                                     !- Hour 1
  0,                                      !- Minute 1
  0;                                      !- Value Until Time 1

OS:Schedule:Rule,
  {aef3bff0-4d87-4fa4-a65f-037b7f25916a}, !- Handle
  cooling setpoint allday rule,           !- Name
  {560b2967-31e4-4330-b65a-e33414ecb880}, !- Schedule Ruleset Name
  0,                                      !- Rule Order
  {418b81e4-f1cd-4c29-94cf-503ee2abb47d}, !- Day Schedule Name
  Yes,                                    !- Apply Sunday
  Yes,                                    !- Apply Monday
  Yes,                                    !- Apply Tuesday
  Yes,                                    !- Apply Wednesday
  Yes,                                    !- Apply Thursday
  Yes,                                    !- Apply Friday
  Yes,                                    !- Apply Saturday
  DateRange,                              !- Date Specification Type
  1,                                      !- Start Month
  1,                                      !- Start Day
  12,                                     !- End Month
  31;                                     !- End Day

OS:Schedule:Day,
  {418b81e4-f1cd-4c29-94cf-503ee2abb47d}, !- Handle
  cooling setpoint day,                   !- Name
  {be164406-0b4a-49b6-87ad-966522f05b6e}, !- Schedule Type Limits Name
  ,                                       !- Interpolate to Timestep
  24,                                     !- Hour 1
  0,                                      !- Minute 1
  25.5555555555556;                       !- Value Until Time 1

OS:ThermostatSetpoint:DualSetpoint,
  {4d75adb9-14d4-4dda-9f3d-a615ff908d15}, !- Handle
  conditioned space temperature setpoint, !- Name
  {8d55f989-9f0d-43f3-b599-f368cf042f98}, !- Heating Setpoint Temperature Schedule Name
  {560b2967-31e4-4330-b65a-e33414ecb880}, !- Cooling Setpoint Temperature Schedule Name
  0;                                      !- Temperature Difference Between Cutout And Setpoint {deltaC}

OS:ScheduleTypeLimits,
  {be164406-0b4a-49b6-87ad-966522f05b6e}, !- Handle
  Temperature,                            !- Name
  ,                                       !- Lower Limit Value
  ,                                       !- Upper Limit Value
  Continuous,                             !- Numeric Type
  Temperature;                            !- Unit Type

OS:Surface,
  {72b28257-643b-4c55-8622-7629f9ceb1db}, !- Handle
  Wall1,                                  !- Name
  Wall,                                   !- Surface Type
  {3d68966f-8bbe-4ef0-811e-eafcd848d604}, !- Construction Name
  {201b1e4b-65af-4244-96ae-c02ddab44af0}, !- Space Name
  Outdoors,                               !- Outside Boundary Condition
  ,                                       !- Outside Boundary Condition Object
  SunExposed,                             !- Sun Exposure
  WindExposed,                            !- Wind Exposure
  ,                                       !- View Factor to Ground
  ,                                       !- Number of Vertices
  -41.689655, 42.6186854, 0,              !- X,Y,Z Vertex 1 {m}
  -41.689655, 42.6186854, 2.4384,         !- X,Y,Z Vertex 2 {m}
  -29.775785, 42.6186854, 2.4384,         !- X,Y,Z Vertex 3 {m}
  -29.775785, 42.6186854, 0;              !- X,Y,Z Vertex 4 {m}

OS:AdditionalProperties,
  {0544dc9d-5992-464c-97c7-12de5a083dac}, !- Handle
  {72b28257-643b-4c55-8622-7629f9ceb1db}, !- Object Name
  Length,                                 !- Feature Name 1
  Double,                                 !- Feature Data Type 1
  39.087499999999999,                     !- Feature Value 1
  Azimuth,                                !- Feature Name 2
  Integer,                                !- Feature Data Type 2
  0,                                      !- Feature Value 2
  Tilt,                                   !- Feature Name 3
  Double,                                 !- Feature Data Type 3
  90,                                     !- Feature Value 3
  SurfaceType,                            !- Feature Name 4
  String,                                 !- Feature Data Type 4
  Wall;                                   !- Feature Value 4

OS:Material,
  {946f29ae-3daa-4187-9cb7-7b03c01ac26d}, !- Handle
  wood siding,                            !- Name
  Rough,                                  !- Roughness
  0.0254,                                 !- Thickness {m}
  0.1024175,                              !- Conductivity {W/m-K}
  544.68,                                 !- Density {kg/m3}
  1172.36,                                !- Specific Heat {J/kg-K}
  0.9,                                    !- Thermal Absorptance
  0.7,                                    !- Solar Absorptance
  0.7;                                    !- Visible Absorptance

OS:Material,
  {cd866de7-e433-4b92-bfec-7785056c3aa7}, !- Handle
  osb sheathing 0.5 in.,                  !- Name
  Rough,                                  !- Roughness
  0.0127,                                 !- Thickness {m}
  0.1154577,                              !- Conductivity {W/m-K}
  512.64,                                 !- Density {kg/m3}
  1214.23,                                !- Specific Heat {J/kg-K}
  0.9,                                    !- Thermal Absorptance
  0.7,                                    !- Solar Absorptance
  0.7;                                    !- Visible Absorptance

OS:Material,
  {4c1fb3e8-78c7-43a3-b5d4-47163004fa93}, !- Handle
  wall stud and cavity,                   !- Name
  Rough,                                  !- Roughness
  0.1397,                                 !- Thickness {m}
  0.0929021674204099,                     !- Conductivity {W/m-K}
  139.0536,                               !- Density {kg/m3}
  1170.23755760369,                       !- Specific Heat {J/kg-K}
  0.9,                                    !- Thermal Absorptance
  0.7,                                    !- Solar Absorptance
  0.7;                                    !- Visible Absorptance

OS:Material,
  {eb4cdf41-edcb-49d7-bd1e-ca65474d1f2c}, !- Handle
  gypsum board,                           !- Name
  Rough,                                  !- Roughness
  0.0127,                                 !- Thickness {m}
  0.1602906,                              !- Conductivity {W/m-K}
  801,                                    !- Density {kg/m3}
  837.4,                                  !- Specific Heat {J/kg-K}
  0.9,                                    !- Thermal Absorptance
  0.6,                                    !- Solar Absorptance
  0.6;                                    !- Visible Absorptance

OS:Construction,
  {3d68966f-8bbe-4ef0-811e-eafcd848d604}, !- Handle
  Wall1 construction,                     !- Name
  ,                                       !- Surface Rendering Name
  {946f29ae-3daa-4187-9cb7-7b03c01ac26d}, !- Layer 1
  {cd866de7-e433-4b92-bfec-7785056c3aa7}, !- Layer 2
  {4c1fb3e8-78c7-43a3-b5d4-47163004fa93}, !- Layer 3
  {eb4cdf41-edcb-49d7-bd1e-ca65474d1f2c}; !- Layer 4

OS:Surface,
  {61746859-9d60-4e23-a7f5-f703d486bfa3}, !- Handle
  Wall2,                                  !- Name
  Wall,                                   !- Surface Type
  {7d6093b2-2228-402a-9085-5caa6ce6d4d2}, !- Construction Name
  {201b1e4b-65af-4244-96ae-c02ddab44af0}, !- Space Name
  Outdoors,                               !- Outside Boundary Condition
  ,                                       !- Outside Boundary Condition Object
  SunExposed,                             !- Sun Exposure
  WindExposed,                            !- Wind Exposure
  ,                                       !- View Factor to Ground
  ,                                       !- Number of Vertices
  42.6186854, -36.6636554, 0,             !- X,Y,Z Vertex 1 {m}
  42.6186854, -36.6636554, 2.4384,        !- X,Y,Z Vertex 2 {m}
  42.6186854, -42.6186854, 2.4384,        !- X,Y,Z Vertex 3 {m}
  42.6186854, -42.6186854, 0;             !- X,Y,Z Vertex 4 {m}

OS:AdditionalProperties,
  {a7aad052-2b8f-4b93-8329-88c0134e176c}, !- Handle
  {61746859-9d60-4e23-a7f5-f703d486bfa3}, !- Object Name
  Length,                                 !- Feature Name 1
  Double,                                 !- Feature Data Type 1
  19.537500000000001,                     !- Feature Value 1
  Azimuth,                                !- Feature Name 2
  Integer,                                !- Feature Data Type 2
  90,                                     !- Feature Value 2
  Tilt,                                   !- Feature Name 3
  Double,                                 !- Feature Data Type 3
  90,                                     !- Feature Value 3
  SurfaceType,                            !- Feature Name 4
  String,                                 !- Feature Data Type 4
  Wall;                                   !- Feature Value 4

OS:Construction,
  {7d6093b2-2228-402a-9085-5caa6ce6d4d2}, !- Handle
  Wall2 construction,                     !- Name
  ,                                       !- Surface Rendering Name
  {946f29ae-3daa-4187-9cb7-7b03c01ac26d}, !- Layer 1
  {cd866de7-e433-4b92-bfec-7785056c3aa7}, !- Layer 2
  {4c1fb3e8-78c7-43a3-b5d4-47163004fa93}, !- Layer 3
  {eb4cdf41-edcb-49d7-bd1e-ca65474d1f2c}; !- Layer 4

OS:Surface,
  {a59ec6a3-3b91-401b-bdae-3e7789873e7f}, !- Handle
  Wall3,                                  !- Name
  Wall,                                   !- Surface Type
  {f2520ff0-891a-46b7-bf21-097109959d31}, !- Construction Name
  {201b1e4b-65af-4244-96ae-c02ddab44af0}, !- Space Name
  Outdoors,                               !- Outside Boundary Condition
  ,                                       !- Outside Boundary Condition Object
  SunExposed,                             !- Sun Exposure
  WindExposed,                            !- Wind Exposure
  ,                                       !- View Factor to Ground
  ,                                       !- Number of Vertices
  -29.6238419715142, -42.6186854, 0,      !- X,Y,Z Vertex 1 {m}
  -29.6238419715142, -42.6186854, 2.4384, !- X,Y,Z Vertex 2 {m}
  -40.7757119715142, -42.6186854, 2.4384, !- X,Y,Z Vertex 3 {m}
  -40.7757119715142, -42.6186854, 0;      !- X,Y,Z Vertex 4 {m}

OS:AdditionalProperties,
  {b4de0be9-cb27-49ce-9c8a-9ca0c5cc7919}, !- Handle
  {a59ec6a3-3b91-401b-bdae-3e7789873e7f}, !- Object Name
  Length,                                 !- Feature Name 1
  Double,                                 !- Feature Data Type 1
  36.587499999999999,                     !- Feature Value 1
  Azimuth,                                !- Feature Name 2
  Integer,                                !- Feature Data Type 2
  180,                                    !- Feature Value 2
  Tilt,                                   !- Feature Name 3
  Double,                                 !- Feature Data Type 3
  90,                                     !- Feature Value 3
  SurfaceType,                            !- Feature Name 4
  String,                                 !- Feature Data Type 4
  Wall;                                   !- Feature Value 4

OS:Construction,
  {f2520ff0-891a-46b7-bf21-097109959d31}, !- Handle
  Wall3 construction,                     !- Name
  ,                                       !- Surface Rendering Name
  {946f29ae-3daa-4187-9cb7-7b03c01ac26d}, !- Layer 1
  {cd866de7-e433-4b92-bfec-7785056c3aa7}, !- Layer 2
  {4c1fb3e8-78c7-43a3-b5d4-47163004fa93}, !- Layer 3
  {eb4cdf41-edcb-49d7-bd1e-ca65474d1f2c}; !- Layer 4

OS:Surface,
  {3b194d9d-1d3b-4200-bbae-66d57e1c0a5d}, !- Handle
  Wall4,                                  !- Name
  Wall,                                   !- Surface Type
  {25290131-689c-48bc-abc8-33d2675d16c7}, !- Construction Name
  {201b1e4b-65af-4244-96ae-c02ddab44af0}, !- Space Name
  Outdoors,                               !- Outside Boundary Condition
  ,                                       !- Outside Boundary Condition Object
  SunExposed,                             !- Sun Exposure
  WindExposed,                            !- Wind Exposure
  ,                                       !- View Factor to Ground
  ,                                       !- Number of Vertices
  -42.6186854, 36.6636554, 0,             !- X,Y,Z Vertex 1 {m}
  -42.6186854, 36.6636554, 2.4384,        !- X,Y,Z Vertex 2 {m}
  -42.6186854, 42.6186854, 2.4384,        !- X,Y,Z Vertex 3 {m}
  -42.6186854, 42.6186854, 0;             !- X,Y,Z Vertex 4 {m}

OS:AdditionalProperties,
  {c6904c33-fca8-433a-8bbb-d568277a9d14}, !- Handle
  {3b194d9d-1d3b-4200-bbae-66d57e1c0a5d}, !- Object Name
  Length,                                 !- Feature Name 1