
OS:Version,
  {022b771d-4e30-48e1-96bd-c83ce97dc95e}, !- Handle
  3.9.0;                                  !- Version Identifier

OS:SimulationControl,
  {1b3180c4-303d-40b4-962c-3491dba07d57}, !- Handle
  ,                                       !- Do Zone Sizing Calculation
  ,                                       !- Do System Sizing Calculation
  ,                                       !- Do Plant Sizing Calculation
  No;                                     !- Run Simulation for Sizing Periods

OS:Timestep,
  {5cfde877-23c9-452f-9a60-b62e225ae84c}, !- Handle
  1;                                      !- Number of Timesteps per Hour

OS:ShadowCalculation,
  {e32f9089-be52-45cb-9a60-43e1c63ebac3}, !- Handle
  PolygonClipping,                        !- Shading Calculation Method
  ,                                       !- Shading Calculation Update Frequency Method
  20,                                     !- Shading Calculation Update Frequency
  200,                                    !- Maximum Figures in Shadow Overlap Calculations
  ,                                       !- Polygon Clipping Algorithm
  512,                                    !- Pixel Counting Resolution
  ,                                       !- Sky Diffuse Modeling Algorithm
  No,                                     !- Output External Shading Calculation Results
  No,                                     !- Disable Self-Shading Within Shading Zone Groups
  No;                                     !- Disable Self-Shading From Shading Zone Groups to Other Zones

OS:SurfaceConvectionAlgorithm:Outside,
  {62c008d5-cedf-468f-b154-68d2393b09c8}, !- Handle
  DOE-2;                                  !- Algorithm

OS:SurfaceConvectionAlgorithm:Inside,
  {25bdda88-6ebf-4429-be46-1eb754432eaf}, !- Handle
  TARP;                                   !- Algorithm

OS:ZoneCapacitanceMultiplier:ResearchSpecial,
  {10afc2e0-d795-4dec-a8b2-537ba42f45e5}, !- Handle
  7,                                      !- Temperature Capacity Multiplier
  15,                                     !- Humidity Capacity Multiplier
  ;                                       !- Carbon Dioxide Capacity Multiplier

OS:ConvergenceLimits,
  {6b726903-7206-46a2-8942-717b6757f068}, !- Handle
  0;                                      !- Minimum System Timestep {minutes}

OS:RunPeriod,
  {ff5366dc-d4de-44a8-9693-5d3dd14045c4}, !- Handle
  Run Period 1,                           !- Name
  1,                                      !- Begin Month
  1,                                      !- Begin Day of Month
  12,                                     !- End Month
  31,                                     !- End Day of Month
  ,                                       !- Use Weather File Holidays and Special Days
  ,                                       !- Use Weather File Daylight Saving Period
  ,                                       !- Apply Weekend Holiday Rule
  ,                                       !- Use Weather File Rain Indicators
  ,                                       !- Use Weather File Snow Indicators
  ;                                       !- Number of Times Runperiod to be Repeated

OS:PerformancePrecisionTradeoffs,
  {b63fb2e4-fe56-4f57-9678-2627cbacccd7}, !- Handle
  ,                                       !- Use Coil Direct Solutions
  CarrollMRT;                             !- Zone Radiant Exchange Algorithm

OS:WeatherFile,
  {e33bddb9-9ba0-4a0e-9493-0f6c6a59e770}, !- Handle
  Buffalo Niagara Intl Ap,                !- City
  NY,                                     !- State Province Region
  USA,                                    !- Country
  TMY3,                                   !- Data Source
  725280,                                 !- WMO Number
  42.93,                                  !- Latitude {deg}
  -78.73,                                 !- Longitude {deg}
  -5,                                     !- Time Zone {hr}
  215,                                    !- Elevation {m}
  /Users/nmoore/github/urbanopt-example-geojson-project/example_project/weather/USA_NY_Buffalo-Greater.Buffalo.Intl.AP.725280_TMY3.epw, !- Url
  6B50E0FF,                               !- Checksum
  ,                                       !- Start Date Actual Year
  Sunday;                                 !- Start Day of Week

OS:YearDescription,
  {98c747fa-6f1a-4fbb-b849-e9c8f7212cf3}, !- Handle
  2007,                                   !- Calendar Year
  ,                                       !- Day of Week for Start Day
  ;                                       !- Is Leap Year

OS:Site,
  {6005d046-1a9f-4d4b-a395-0789a16a72ce}, !- Handle
  Buffalo Niagara Intl Ap_NY,             !- Name
  42.93,                                  !- Latitude {deg}
  -78.73,                                 !- Longitude {deg}
  -5,                                     !- Time Zone {hr}
  215,                                    !- Elevation {m}
  Suburbs,                                !- Terrain
  Yes;                                    !- Keep Site Location Information

OS:RunPeriodControl:DaylightSavingTime,
  {816fb61c-a8c8-4523-82b8-7e89108fcab0}, !- Handle
  Mar 12,                                 !- Start Date
  Nov 5;                                  !- End Date

OS:Site:GroundTemperature:Shallow,
  {0c50f88b-e5f4-407a-a850-29bb364fb3b0}, !- Handle
  4.30207395723828,                       !- January Surface Ground Temperature {C}
  2.29327249652502,                       !- February Surface Ground Temperature {C}
  2.13240047156047,                       !- March Surface Ground Temperature {C}
  3.08567940719286,                       !- April Surface Ground Temperature {C}
  6.91256312497526,                       !- May Surface Ground Temperature {C}
  10.7216195949507,                       !- June Surface Ground Temperature {C}
  14.0238679822574,                       !- July Surface Ground Temperature {C}
  16.1157611184724,                       !- August Surface Ground Temperature {C}
  16.2934789303462,                       !- September Surface Ground Temperature {C}
  14.5920754632847,                       !- October Surface Ground Temperature {C}
  11.374036348653,                        !- November Surface Ground Temperature {C}
  7.68182621661674;                       !- December Surface Ground Temperature {C}

OS:ThermalZone,
  {8ab873fb-2b09-4a0c-8c4e-dc8173c45a18}, !- Handle
  conditioned space,                      !- Name
  1,                                      !- Multiplier
  ,                                       !- Ceiling Height {m}
  346.03186535424,                        !- Volume {m3}
  ,                                       !- Floor Area {m2}
  ,                                       !- Zone Inside Convection Algorithm
  ,                                       !- Zone Outside Convection Algorithm
  ,                                       !- Zone Conditioning Equipment List Name
  {9ad17b14-643f-43fc-a86c-13cbdecde370}, !- Zone Air Inlet Port List
  {aec0d4ae-5f44-4d77-86f7-2803abc929a9}, !- Zone Air Exhaust Port List
  {2d96a1dc-efb9-4caf-b06c-61e4a0b54830}, !- Zone Air Node Name
  {d6a6a9e6-31d5-4232-be18-c2fbd0e106e3}, !- Zone Return Air Port List
  ,                                       !- Primary Daylighting Control Name
  ,                                       !- Fraction of Zone Controlled by Primary Daylighting Control
  ,                                       !- Secondary Daylighting Control Name
  ,                                       !- Fraction of Zone Controlled by Secondary Daylighting Control
  ,                                       !- Illuminance Map Name
  ,                                       !- Group Rendering Name
  {672428ea-44ab-4525-89c0-b663879136e4}, !- Thermostat Name
  No;                                     !- Use Ideal Air Loads

OS:Node,
  {5f80e19a-68d0-425f-9544-a18f1ee8a140}, !- Handle
  Node 1,                                 !- Name
  {2d96a1dc-efb9-4caf-b06c-61e4a0b54830}, !- Inlet Port
  ;                                       !- Outlet Port

OS:Connection,
  {2d96a1dc-efb9-4caf-b06c-61e4a0b54830}, !- Handle
  {8ab873fb-2b09-4a0c-8c4e-dc8173c45a18}, !- Source Object
  11,                                     !- Outlet Port
  {5f80e19a-68d0-425f-9544-a18f1ee8a140}, !- Target Object
  2;                                      !- Inlet Port

OS:PortList,
  {9ad17b14-643f-43fc-a86c-13cbdecde370}, !- Handle
  {8ab873fb-2b09-4a0c-8c4e-dc8173c45a18}, !- HVAC Component
  {ddcc1163-b437-4b6f-bb1a-8578944426de}; !- Port 1

OS:PortList,
  {aec0d4ae-5f44-4d77-86f7-2803abc929a9}, !- Handle
  {8ab873fb-2b09-4a0c-8c4e-dc8173c45a18}; !- HVAC Component

OS:PortList,
  {d6a6a9e6-31d5-4232-be18-c2fbd0e106e3}, !- Handle
  {8ab873fb-2b09-4a0c-8c4e-dc8173c45a18}, !- HVAC Component
  {7e79e0b4-a05c-4eae-83e0-c3d5f8090cdc}; !- Port 1

OS:Sizing:Zone,
  {30f100f2-6118-4fe2-91ef-d8e1ab26f869}, !- Handle
  {8ab873fb-2b09-4a0c-8c4e-dc8173c45a18}, !- Zone or ZoneList Name
  SupplyAirTemperature,                   !- Zone Cooling Design Supply Air Temperature Input Method
  14,                                     !- Zone Cooling Design Supply Air Temperature {C}
  11.11,                                  !- Zone Cooling Design Supply Air Temperature Difference {deltaC}
  SupplyAirTemperature,                   !- Zone Heating Design Supply Air Temperature Input Method
  40,                                     !- Zone Heating Design Supply Air Temperature {C}
  11.11,                                  !- Zone Heating Design Supply Air Temperature Difference {deltaC}
  0.0085,                                 !- Zone Cooling Design Supply Air Humidity Ratio {kg-H2O/kg-air}
  0.008,                                  !- Zone Heating Design Supply Air Humidity Ratio {kg-H2O/kg-air}
  ,                                       !- Zone Heating Sizing Factor
  ,                                       !- Zone Cooling Sizing Factor
  DesignDay,                              !- Cooling Design Air Flow Method
  ,                                       !- Cooling Design Air Flow Rate {m3/s}
  ,                                       !- Cooling Minimum Air Flow per Zone Floor Area {m3/s-m2}
  ,                                       !- Cooling Minimum Air Flow {m3/s}
  ,                                       !- Cooling Minimum Air Flow Fraction
  DesignDay,                              !- Heating Design Air Flow Method
  ,                                       !- Heating Design Air Flow Rate {m3/s}
  ,                                       !- Heating Maximum Air Flow per Zone Floor Area {m3/s-m2}
  ,                                       !- Heating Maximum Air Flow {m3/s}
  ,                                       !- Heating Maximum Air Flow Fraction
  No,                                     !- Account for Dedicated Outdoor Air System
  NeutralSupplyAir,                       !- Dedicated Outdoor Air System Control Strategy
  autosize,                               !- Dedicated Outdoor Air Low Setpoint Temperature for Design {C}
  autosize,                               !- Dedicated Outdoor Air High Setpoint Temperature for Design {C}
  Sensible Load Only No Latent Load,      !- Zone Load Sizing Method
  HumidityRatioDifference,                !- Zone Latent Cooling Design Supply Air Humidity Ratio Input Method
  ,                                       !- Zone Dehumidification Design Supply Air Humidity Ratio {kgWater/kgDryAir}
  0.005,                                  !- Zone Cooling Design Supply Air Humidity Ratio Difference {kgWater/kgDryAir}
  HumidityRatioDifference,                !- Zone Latent Heating Design Supply Air Humidity Ratio Input Method
  ,                                       !- Zone Humidification Design Supply Air Humidity Ratio {kgWater/kgDryAir}
  0.005,                                  !- Zone Humidification Design Supply Air Humidity Ratio Difference {kgWater/kgDryAir}
  ,                                       !- Zone Humidistat Dehumidification Set Point Schedule Name
  ,                                       !- Zone Humidistat Humidification Set Point Schedule Name
  ,                                       !- Design Zone Air Distribution Effectiveness in Cooling Mode
  ,                                       !- Design Zone Air Distribution Effectiveness in Heating Mode
  ,                                       !- Design Zone Secondary Recirculation Fraction {dimensionless}
  ,                                       !- Design Minimum Zone Ventilation Efficiency {dimensionless}
  Coincident;                             !- Sizing Option

OS:ZoneHVAC:EquipmentList,
  {665e6edd-75d9-4697-a817-77f1aa566793}, !- Handle
  Zone HVAC Equipment List 1,             !- Name
  {8ab873fb-2b09-4a0c-8c4e-dc8173c45a18}, !- Thermal Zone
  ,                                       !- Load Distribution Scheme
  {f70abdb2-1e31-43fa-b24d-1a7e5ef254e1}, !- Zone Equipment 1
  1,                                      !- Zone Equipment Cooling Sequence 1
  1,                                      !- Zone Equipment Heating or No-Load Sequence 1
  {bcad649c-96f9-4ecf-b61c-77aeb4b44d6c}, !- Zone Equipment Sequential Cooling Fraction Schedule Name 1
  {f70b9155-503c-41f7-82ff-99abb904161a}; !- Zone Equipment Sequential Heating Fraction Schedule Name 1

OS:AdditionalProperties,
  {0d771b71-ef69-4811-874f-3a0a63a2e3fb}, !- Handle
  {8ab873fb-2b09-4a0c-8c4e-dc8173c45a18}, !- Object Name
  ObjectType,                             !- Feature Name 1
  String,                                 !- Feature Data Type 1
  conditioned space;                      !- Feature Value 1

OS:Space,
  {7cbfb49b-b9d4-41d9-add8-f1264b69f64f}, !- Handle
  conditioned space 1,                    !- Name
  ,                                       !- Space Type Name
  ,                                       !- Default Construction Set Name
  ,                                       !- Default Schedule Set Name
  ,                                       !- Direction of Relative North {deg}
  ,                                       !- X Origin {m}
  ,                                       !- Y Origin {m}
  ,                                       !- Z Origin {m}
  ,                                       !- Building Story Name
  {8ab873fb-2b09-4a0c-8c4e-dc8173c45a18}, !- Thermal Zone Name
  ,                                       !- Part of Total Floor Area
  ,                                       !- Design Specification Outdoor Air Object Name
  ,                                       !- Building Unit Name
  346.03186535424;                        !- Volume {m3}

OS:Schedule:Ruleset,
  {8d6744d9-208d-410f-8cb9-4c135f442040}, !- Handle
  heating setpoint,                       !- Name
  {8ffe8fbe-dada-4c26-9592-9b27118ee468}, !- Schedule Type Limits Name
  {128f5315-17ea-41bf-8fed-9b0710687261}; !- Default Day Schedule Name

OS:Schedule:Day,
  {128f5315-17ea-41bf-8fed-9b0710687261}, !- Handle
  heating setpoint default day,           !- Name
  {8ffe8fbe-dada-4c26-9592-9b27118ee468}, !- Schedule Type Limits Name
  ,                                       !- Interpolate to Timestep
  24,                                     !- Hour 1
  0,                                      !- Minute 1
  0;                                      !- Value Until Time 1

OS:Schedule:Rule,
  {51fb5ba1-03e9-4c46-bd3c-668c776525ab}, !- Handle
  heating setpoint allday rule,           !- Name
  {8d6744d9-208d-410f-8cb9-4c135f442040}, !- Schedule Ruleset Name
  0,                                      !- Rule Order
  {e3575238-a2fb-484c-b04a-1ee5c59e1193}, !- Day Schedule Name
  Yes,                                    !- Apply Sunday
  Yes,                                    !- Apply Monday
  Yes,                                    !- Apply Tuesday
  Yes,                                    !- Apply Wednesday
  Yes,                                    !- Apply Thursday
  Yes,                                    !- Apply Friday
  Yes,                                    !- Apply Saturday
  DateRange,                              !- Date Specification Type
  1,                                      !- Start Month
  1,                                      !- Start Day
  12,                                     !- End Month
  31;                                     !- End Day

OS:Schedule:Day,
  {e3575238-a2fb-484c-b04a-1ee5c59e1193}, !- Handle
  heating setpoint day,                   !- Name
  {8ffe8fbe-dada-4c26-9592-9b27118ee468}, !- Schedule Type Limits Name
  ,                                       !- Interpolate to Timestep
  24,                                     !- Hour 1
  0,                                      !- Minute 1
  20;                                     !- Value Until Time 1

OS:Schedule:Ruleset,
  {b3dd713b-f197-4f70-93fe-ca504da90908}, !- Handle
  cooling setpoint,                       !- Name
  {8ffe8fbe-dada-4c26-9592-9b27118ee468}, !- Schedule Type Limits Name
  {93f7d284-a397-4f37-a1cf-b87fed206b97}; !- Default Day Schedule Name

OS:Schedule:Day,
  {93f7d284-a397-4f37-a1cf-b87fed206b97}, !- Handle
  cooling setpoint default day,           !- Name
  {8ffe8fbe-dada-4c26-9592-9b27118ee468}, !- Schedule Type Limits Name
  ,                                       !- Interpolate to Timestep
  24,                                     !- Hour 1
  0,                                      !- Minute 1
  0;                                      !- Value Until Time 1

OS:Schedule:Rule,
  {9723bf82-7a49-4f8d-8710-6952cc47913c}, !- Handle
  cooling setpoint allday rule,           !- Name
  {b3dd713b-f197-4f70-93fe-ca504da90908}, !- Schedule Ruleset Name
  0,                                      !- Rule Order
  {df6ac77d-9ddc-4065-8bf5-8c733bf10e3f}, !- Day Schedule Name
  Yes,                                    !- Apply Sunday
  Yes,                                    !- Apply Monday
  Yes,                                    !- Apply Tuesday
  Yes,                                    !- Apply Wednesday
  Yes,                                    !- Apply Thursday
  Yes,                                    !- Apply Friday
  Yes,                                    !- Apply Saturday
  DateRange,                              !- Date Specification Type
  1,                                      !- Start Month
  1,                                      !- Start Day
  12,                                     !- End Month
  31;                                     !- End Day

OS:Schedule:Day,
  {df6ac77d-9ddc-4065-8bf5-8c733bf10e3f}, !- Handle
  cooling setpoint day,                   !- Name
  {8ffe8fbe-dada-4c26-9592-9b27118ee468}, !- Schedule Type Limits Name
  ,                                       !- Interpolate to Timestep
  24,                                     !- Hour 1
  0,                                      !- Minute 1
  25.5555555555556;                       !- Value Until Time 1

OS:ThermostatSetpoint:DualSetpoint,
  {672428ea-44ab-4525-89c0-b663879136e4}, !- Handle
  conditioned space temperature setpoint, !- Name
  {8d6744d9-208d-410f-8cb9-4c135f442040}, !- Heating Setpoint Temperature Schedule Name
  {b3dd713b-f197-4f70-93fe-ca504da90908}, !- Cooling Setpoint Temperature Schedule Name
  0;                                      !- Temperature Difference Between Cutout And Setpoint {deltaC}

OS:ScheduleTypeLimits,
  {8ffe8fbe-dada-4c26-9592-9b27118ee468}, !- Handle
  Temperature,                            !- Name
  ,                                       !- Lower Limit Value
  ,                                       !- Upper Limit Value
  Continuous,                             !- Numeric Type
  Temperature;                            !- Unit Type

OS:Surface,
  {f4ed9681-108f-42d0-ad98-62cdfeb525f6}, !- Handle
  Wall1,                                  !- Name
  Wall,                                   !- Surface Type
  {4b7db1d0-c3d6-4a18-bae0-f092e29479b4}, !- Construction Name
  {7cbfb49b-b9d4-41d9-add8-f1264b69f64f}, !- Space Name
  Outdoors,                               !- Outside Boundary Condition
  ,                                       !- Outside Boundary Condition Object
  SunExposed,                             !- Sun Exposure
  WindExposed,                            !- Wind Exposure
  ,                                       !- View Factor to Ground
  ,                                       !- Number of Vertices
  -41.689655, 42.6186854, 0,              !- X,Y,Z Vertex 1 {m}
  -41.689655, 42.6186854, 2.4384,         !- X,Y,Z Vertex 2 {m}
  -29.775785, 42.6186854, 2.4384,         !- X,Y,Z Vertex 3 {m}
  -29.775785, 42.6186854, 0;              !- X,Y,Z Vertex 4 {m}

OS:AdditionalProperties,
  {a6bda687-c37a-4d5a-86e6-7ba3dfb8baf8}, !- Handle
  {f4ed9681-108f-42d0-ad98-62cdfeb525f6}, !- Object Name
  Length,                                 !- Feature Name 1
  Double,                                 !- Feature Data Type 1
  39.087499999999999,                     !- Feature Value 1
  Azimuth,                                !- Feature Name 2
  Integer,                                !- Feature Data Type 2
  0,                                      !- Feature Value 2
  Tilt,                                   !- Feature Name 3
  Double,                                 !- Feature Data Type 3
  90,                                     !- Feature Value 3
  SurfaceType,                            !- Feature Name 4
  String,                                 !- Feature Data Type 4
  Wall;                                   !- Feature Value 4

OS:Material,
  {b804d688-0193-4946-89e9-13f70c78acff}, !- Handle
  wood siding,                            !- Name
  Rough,                                  !- Roughness
  0.0254,                                 !- Thickness {m}
  0.1024175,                              !- Conductivity {W/m-K}
  544.68,                                 !- Density {kg/m3}
  1172.36,                                !- Specific Heat {J/kg-K}
  0.9,                                    !- Thermal Absorptance
  0.7,                                    !- Solar Absorptance
  0.7;                                    !- Visible Absorptance

OS:Material,
  {e18353fd-3399-478a-9354-f65017a5caa2}, !- Handle
  osb sheathing 0.5 in.,                  !- Name
  Rough,                                  !- Roughness
  0.0127,                                 !- Thickness {m}
  0.1154577,                              !- Conductivity {W/m-K}
  512.64,                                 !- Density {kg/m3}
  1214.23,                                !- Specific Heat {J/kg-K}
  0.9,                                    !- Thermal Absorptance
  0.7,                                    !- Solar Absorptance
  0.7;                                    !- Visible Absorptance

OS:Material,
  {fb4dfa0b-2489-4e56-ba1f-34d85430c199}, !- Handle
  wall stud and cavity,                   !- Name
  Rough,                                  !- Roughness
  0.1397,                                 !- Thickness {m}
  0.0929021674204099,                     !- Conductivity {W/m-K}
  139.0536,                               !- Density {kg/m3}
  1170.23755760369,                       !- Specific Heat {J/kg-K}
  0.9,                                    !- Thermal Absorptance
  0.7,                                    !- Solar Absorptance
  0.7;                                    !- Visible Absorptance

OS:Material,
  {950e1cf9-26dc-4654-98e1-01024ee5546c}, !- Handle
  gypsum board,                           !- Name
  Rough,                                  !- Roughness
  0.0127,                                 !- Thickness {m}
  0.1602906,                              !- Conductivity {W/m-K}
  801,                                    !- Density {kg/m3}
  837.4,                                  !- Specific Heat {J/kg-K}
  0.9,                                    !- Thermal Absorptance
  0.6,                                    !- Solar Absorptance
  0.6;                                    !- Visible Absorptance

OS:Construction,
  {4b7db1d0-c3d6-4a18-bae0-f092e29479b4}, !- Handle
  Wall1 construction,                     !- Name
  ,                                       !- Surface Rendering Name
  {b804d688-0193-4946-89e9-13f70c78acff}, !- Layer 1
  {e18353fd-3399-478a-9354-f65017a5caa2}, !- Layer 2
  {fb4dfa0b-2489-4e56-ba1f-34d85430c199}, !- Layer 3
  {950e1cf9-26dc-4654-98e1-01024ee5546c}; !- Layer 4

OS:Surface,
  {2393efb8-ed44-40dc-806e-f04385e4c952}, !- Handle
  Wall2,                                  !- Name
  Wall,                                   !- Surface Type
  {1fa915c5-641f-4ab6-a228-25613a0f8f76}, !- Construction Name
  {7cbfb49b-b9d4-41d9-add8-f1264b69f64f}, !- Space Name
  Outdoors,                               !- Outside Boundary Condition
  ,                                       !- Outside Boundary Condition Object
  SunExposed,                             !- Sun Exposure
  WindExposed,                            !- Wind Exposure
  ,                                       !- View Factor to Ground
  ,                                       !- Number of Vertices
  42.6186854, -36.6636554, 0,             !- X,Y,Z Vertex 1 {m}
  42.6186854, -36.6636554, 2.4384,        !- X,Y,Z Vertex 2 {m}
  42.6186854, -42.6186854, 2.4384,        !- X,Y,Z Vertex 3 {m}
  42.6186854, -42.6186854, 0;             !- X,Y,Z Vertex 4 {m}

OS:AdditionalProperties,
  {a3693a7b-bfac-4fb7-a484-ca824b03bc51}, !- Handle
  {2393efb8-ed44-40dc-806e-f04385e4c952}, !- Object Name
  Length,                                 !- Feature Name 1
  Double,                                 !- Feature Data Type 1
  19.537500000000001,                     !- Feature Value 1
  Azimuth,                                !- Feature Name 2
  Integer,                                !- Feature Data Type 2
  90,                                     !- Feature Value 2
  Tilt,                                   !- Feature Name 3
  Double,                                 !- Feature Data Type 3
  90,                                     !- Feature Value 3
  SurfaceType,                            !- Feature Name 4
  String,                                 !- Feature Data Type 4
  Wall;                                   !- Feature Value 4

OS:Construction,
  {1fa915c5-641f-4ab6-a228-25613a0f8f76}, !- Handle
  Wall2 construction,                     !- Name
  ,                                       !- Surface Rendering Name
  {b804d688-0193-4946-89e9-13f70c78acff}, !- Layer 1
  {e18353fd-3399-478a-9354-f65017a5caa2}, !- Layer 2
  {fb4dfa0b-2489-4e56-ba1f-34d85430c199}, !- Layer 3
  {950e1cf9-26dc-4654-98e1-01024ee5546c}; !- Layer 4

OS:Surface,
  {6b6ffbcd-6d25-4428-b8c5-a631601abf1e}, !- Handle
  Wall3,                                  !- Name
  Wall,                                   !- Surface Type
  {d4197936-f81a-4b75-a51f-ffcf56b3a3bc}, !- Construction Name
  {7cbfb49b-b9d4-41d9-add8-f1264b69f64f}, !- Space Name
  Outdoors,                               !- Outside Boundary Condition
  ,                                       !- Outside Boundary Condition Object
  SunExposed,                             !- Sun Exposure
  WindExposed,                            !- Wind Exposure
  ,                                       !- View Factor to Ground
  ,                                       !- Number of Vertices
  -29.6238419715142, -42.6186854, 0,      !- X,Y,Z Vertex 1 {m}
  -29.6238419715142, -42.6186854, 2.4384, !- X,Y,Z Vertex 2 {m}
  -40.7757119715142, -42.6186854, 2.4384, !- X,Y,Z Vertex 3 {m}
  -40.7757119715142, -42.6186854, 0;      !- X,Y,Z Vertex 4 {m}

OS:AdditionalProperties,
  {e17b97ce-bc64-44f8-8b01-8713102ee34e}, !- Handle
  {6b6ffbcd-6d25-4428-b8c5-a631601abf1e}, !- Object Name
  Length,                                 !- Feature Name 1
  Double,                                 !- Feature Data Type 1
  36.587499999999999,                     !- Feature Value 1
  Azimuth,                                !- Feature Name 2
  Integer,                                !- Feature Data Type 2
  180,                                    !- Feature Value 2
  Tilt,                                   !- Feature Name 3
  Double,                                 !- Feature Data Type 3
  90,                                     !- Feature Value 3
  SurfaceType,                            !- Feature Name 4
  String,                                 !- Feature Data Type 4
  Wall;                                   !- Feature Value 4

OS:Construction,
  {d4197936-f81a-4b75-a51f-ffcf56b3a3bc}, !- Handle
  Wall3 construction,                     !- Name
  ,                                       !- Surface Rendering Name
  {b804d688-0193-4946-89e9-13f70c78acff}, !- Layer 1
  {e18353fd-3399-478a-9354-f65017a5caa2}, !- Layer 2
  {fb4dfa0b-2489-4e56-ba1f-34d85430c199}, !- Layer 3
  {950e1cf9-26dc-4654-98e1-01024ee5546c}; !- Layer 4

OS:Surface,
  {b16a8d15-e64c-450d-8b1d-1bfab7136dd4}, !- Handle
  Wall4,                                  !- Name
  Wall,                                   !- Surface Type
  {e1fec4eb-7779-46a6-b055-e0806c7e3e61}, !- Construction Name
  {7cbfb49b-b9d4-41d9-add8-f1264b69f64f}, !- Space Name
  Outdoors,                               !- Outside Boundary Condition
  ,                                       !- Outside Boundary Condition Object
  SunExposed,                             !- Sun Exposure
  WindExposed,                            !- Wind Exposure
  ,                                       !- View Factor to Ground
  ,                                       !- Number of Vertices
  -42.6186854, 36.6636554, 0,             !- X,Y,Z Vertex 1 {m}
  -42.6186854, 36.6636554, 2.4384,        !- X,Y,Z Vertex 2 {m}
  -42.6186854, 42.6186854, 2.4384,        !- X,Y,Z Vertex 3 {m}
  -42.6186854, 42.6186854, 0;             !- X,Y,Z Vertex 4 {m}

OS:AdditionalProperties,
  {6d439847-761f-4143-b5f9-782e9b976ac9}, !- Handle
  {b16a8d15-e64c-450d-8b1d-1bfab7136dd4}, !- Object Name
  Length,                                 !- Feature Name 1