
OS:Version,
  {4f4d43b0-ff27-467b-aa0a-c71450b94f7a}, !- Handle
  3.10.0;                                 !- Version Identifier

OS:SimulationControl,
  {aa91bded-20ee-4fe4-8460-8dee3f2d9881}, !- Handle
  ,                                       !- Do Zone Sizing Calculation
  ,                                       !- Do System Sizing Calculation
  ,                                       !- Do Plant Sizing Calculation
  No;                                     !- Run Simulation for Sizing Periods

OS:Timestep,
  {4664364d-b6fa-4574-8b11-4fdcaa4a8909}, !- Handle
  1;                                      !- Number of Timesteps per Hour

OS:ShadowCalculation,
  {43c3de09-37c7-4259-b35b-a8f43d62c9d0}, !- Handle
  PolygonClipping,                        !- Shading Calculation Method
  ,                                       !- Shading Calculation Update Frequency Method
  20,                                     !- Shading Calculation Update Frequency
  200,                                    !- Maximum Figures in Shadow Overlap Calculations
  ,                                       !- Polygon Clipping Algorithm
  512,                                    !- Pixel Counting Resolution
  ,                                       !- Sky Diffuse Modeling Algorithm
  No,                                     !- Output External Shading Calculation Results
  No,                                     !- Disable Self-Shading Within Shading Zone Groups
  No;                                     !- Disable Self-Shading From Shading Zone Groups to Other Zones

OS:SurfaceConvectionAlgorithm:Outside,
  {17dfa507-0192-4f9f-9c93-7d2f957db3ce}, !- Handle
  DOE-2;                                  !- Algorithm

OS:SurfaceConvectionAlgorithm:Inside,
  {d6e62d86-4e07-4394-905f-3c9fda362c63}, !- Handle
  TARP;                                   !- Algorithm

OS:ZoneCapacitanceMultiplier:ResearchSpecial,
  {6d7b0021-e8ff-4022-a6c2-7bf62fa64710}, !- Handle
  7,                                      !- Temperature Capacity Multiplier
  15,                                     !- Humidity Capacity Multiplier
  ;                                       !- Carbon Dioxide Capacity Multiplier

OS:ConvergenceLimits,
  {f2307faf-91f4-4e84-9d69-fa695f6a270f}, !- Handle
  0;                                      !- Minimum System Timestep {minutes}

OS:RunPeriod,
  {a8e515ee-8aa1-49d7-8baf-a34914e0d95c}, !- Handle
  Run Period 1,                           !- Name
  1,                                      !- Begin Month
  1,                                      !- Begin Day of Month
  12,                                     !- End Month
  31,                                     !- End Day of Month
  ,                                       !- Use Weather File Holidays and Special Days
  ,                                       !- Use Weather File Daylight Saving Period
  ,                                       !- Apply Weekend Holiday Rule
  ,                                       !- Use Weather File Rain Indicators
  ,                                       !- Use Weather File Snow Indicators
  ;                                       !- Number of Times Runperiod to be Repeated

OS:PerformancePrecisionTradeoffs,
  {f9b7be43-e12b-478a-90dc-ac2a24db181e}, !- Handle
  ,                                       !- Use Coil Direct Solutions
  CarrollMRT;                             !- Zone Radiant Exchange Algorithm

OS:WeatherFile,
  {fd63e29b-1746-41b8-b4f3-c36dfe116168}, !- Handle
  Buffalo Niagara Intl Ap,                !- City
  NY,                                     !- State Province Region
  USA,                                    !- Country
  TMY3,                                   !- Data Source
  725280,                                 !- WMO Number
  42.93,                                  !- Latitude {deg}
  -78.73,                                 !- Longitude {deg}
  -5,                                     !- Time Zone {hr}
  215,                                    !- Elevation {m}
  /Users/nmoore/github/urbanopt-example-geojson-project/example_project/weather/USA_NY_Buffalo-Greater.Buffalo.Intl.AP.725280_TMY3.epw, !- Url
  6B50E0FF,                               !- Checksum
  ,                                       !- Start Date Actual Year
  Sunday;                                 !- Start Day of Week

OS:YearDescription,
  {b21b8ef9-ed72-4feb-b974-eb107c8a0df1}, !- Handle
  2007,                                   !- Calendar Year
  ,                                       !- Day of Week for Start Day
  ;                                       !- Is Leap Year

OS:Site,
  {02a8e1c0-f881-48e2-bc4b-152b42ab6243}, !- Handle
  Buffalo Niagara Intl Ap_NY,             !- Name
  42.93,                                  !- Latitude {deg}
  -78.73,                                 !- Longitude {deg}
  -5,                                     !- Time Zone {hr}
  215,                                    !- Elevation {m}
  Suburbs,                                !- Terrain
  Yes;                                    !- Keep Site Location Information

OS:RunPeriodControl:DaylightSavingTime,
  {23b0aee6-ccfa-4832-8ec5-853031c6f08c}, !- Handle
  Mar 12,                                 !- Start Date
  Nov 5;                                  !- End Date

OS:Site:GroundTemperature:Shallow,
  {fa470ac1-9171-4a31-9186-d50c6db67fa3}, !- Handle
  4.30207395723828,                       !- January Surface Ground Temperature {C}
  2.29327249652502,                       !- February Surface Ground Temperature {C}
  2.13240047156047,                       !- March Surface Ground Temperature {C}
  3.08567940719286,                       !- April Surface Ground Temperature {C}
  6.91256312497526,                       !- May Surface Ground Temperature {C}
  10.7216195949507,                       !- June Surface Ground Temperature {C}
  14.0238679822574,                       !- July Surface Ground Temperature {C}
  16.1157611184724,                       !- August Surface Ground Temperature {C}
  16.2934789303462,                       !- September Surface Ground Temperature {C}
  14.5920754632847,                       !- October Surface Ground Temperature {C}
  11.374036348653,                        !- November Surface Ground Temperature {C}
  7.68182621661674;                       !- December Surface Ground Temperature {C}

OS:ThermalZone,
  {22dc90b3-8e1e-4a1b-a6f5-1c6b9cc80b00}, !- Handle
  conditioned space,                      !- Name
  1,                                      !- Multiplier
  ,                                       !- Ceiling Height {m}
  692.06373070848,                        !- Volume {m3}
  ,                                       !- Floor Area {m2}
  ,                                       !- Zone Inside Convection Algorithm
  ,                                       !- Zone Outside Convection Algorithm
  ,                                       !- Zone Conditioning Equipment List Name
  {09acae30-3da6-44d9-b53a-4979a94d6252}, !- Zone Air Inlet Port List
  {6c4d30f5-931c-4e4e-a719-9f5a3af9f7da}, !- Zone Air Exhaust Port List
  {a9fcc6bd-9fa4-4f29-830d-0ea3c39cd0e5}, !- Zone Air Node Name
  {9a52f03b-270e-4500-99fe-353950ac835d}, !- Zone Return Air Port List
  ,                                       !- Primary Daylighting Control Name
  ,                                       !- Fraction of Zone Controlled by Primary Daylighting Control
  ,                                       !- Secondary Daylighting Control Name
  ,                                       !- Fraction of Zone Controlled by Secondary Daylighting Control
  ,                                       !- Illuminance Map Name
  ,                                       !- Group Rendering Name
  {dfa524dc-b50a-4ec1-9709-972a425d81d1}, !- Thermostat Name
  No;                                     !- Use Ideal Air Loads

OS:Node,
  {232744ef-0a51-46a2-8cd1-98cd52508324}, !- Handle
  Node 1,                                 !- Name
  {a9fcc6bd-9fa4-4f29-830d-0ea3c39cd0e5}, !- Inlet Port
  ;                                       !- Outlet Port

OS:Connection,
  {a9fcc6bd-9fa4-4f29-830d-0ea3c39cd0e5}, !- Handle
  {22dc90b3-8e1e-4a1b-a6f5-1c6b9cc80b00}, !- Source Object
  11,                                     !- Outlet Port
  {232744ef-0a51-46a2-8cd1-98cd52508324}, !- Target Object
  2;                                      !- Inlet Port

OS:PortList,
  {09acae30-3da6-44d9-b53a-4979a94d6252}, !- Handle
  {22dc90b3-8e1e-4a1b-a6f5-1c6b9cc80b00}, !- HVAC Component
  {9c49cbb8-394a-43a4-9ecc-45945b87f420}; !- Port 1

OS:PortList,
  {6c4d30f5-931c-4e4e-a719-9f5a3af9f7da}, !- Handle
  {22dc90b3-8e1e-4a1b-a6f5-1c6b9cc80b00}; !- HVAC Component

OS:PortList,
  {9a52f03b-270e-4500-99fe-353950ac835d}, !- Handle
  {22dc90b3-8e1e-4a1b-a6f5-1c6b9cc80b00}, !- HVAC Component
  {5d9cfb49-3c9f-4c99-a601-a223cec4c60f}; !- Port 1

OS:Sizing:Zone,
  {33e6ffee-5648-4ea4-adaa-11a1b35439ea}, !- Handle
  {22dc90b3-8e1e-4a1b-a6f5-1c6b9cc80b00}, !- Zone or ZoneList Name
  SupplyAirTemperature,                   !- Zone Cooling Design Supply Air Temperature Input Method
  14,                                     !- Zone Cooling Design Supply Air Temperature {C}
  11.11,                                  !- Zone Cooling Design Supply Air Temperature Difference {deltaC}
  SupplyAirTemperature,                   !- Zone Heating Design Supply Air Temperature Input Method
  40,                                     !- Zone Heating Design Supply Air Temperature {C}
  11.11,                                  !- Zone Heating Design Supply Air Temperature Difference {deltaC}
  0.0085,                                 !- Zone Cooling Design Supply Air Humidity Ratio {kg-H2O/kg-air}
  0.008,                                  !- Zone Heating Design Supply Air Humidity Ratio {kg-H2O/kg-air}
  ,                                       !- Zone Heating Sizing Factor
  ,                                       !- Zone Cooling Sizing Factor
  DesignDay,                              !- Cooling Design Air Flow Method
  ,                                       !- Cooling Design Air Flow Rate {m3/s}
  ,                                       !- Cooling Minimum Air Flow per Zone Floor Area {m3/s-m2}
  ,                                       !- Cooling Minimum Air Flow {m3/s}
  ,                                       !- Cooling Minimum Air Flow Fraction
  DesignDay,                              !- Heating Design Air Flow Method
  ,                                       !- Heating Design Air Flow Rate {m3/s}
  ,                                       !- Heating Maximum Air Flow per Zone Floor Area {m3/s-m2}
  ,                                       !- Heating Maximum Air Flow {m3/s}
  ,                                       !- Heating Maximum Air Flow Fraction
  No,                                     !- Account for Dedicated Outdoor Air System
  NeutralSupplyAir,                       !- Dedicated Outdoor Air System Control Strategy
  autosize,                               !- Dedicated Outdoor Air Low Setpoint Temperature for Design {C}
  autosize,                               !- Dedicated Outdoor Air High Setpoint Temperature for Design {C}
  Sensible Load Only No Latent Load,      !- Zone Load Sizing Method
  HumidityRatioDifference,                !- Zone Latent Cooling Design Supply Air Humidity Ratio Input Method
  ,                                       !- Zone Dehumidification Design Supply Air Humidity Ratio {kgWater/kgDryAir}
  0.005,                                  !- Zone Cooling Design Supply Air Humidity Ratio Difference {kgWater/kgDryAir}
  HumidityRatioDifference,                !- Zone Latent Heating Design Supply Air Humidity Ratio Input Method
  ,                                       !- Zone Humidification Design Supply Air Humidity Ratio {kgWater/kgDryAir}
  0.005,                                  !- Zone Humidification Design Supply Air Humidity Ratio Difference {kgWater/kgDryAir}
  ,                                       !- Zone Humidistat Dehumidification Set Point Schedule Name
  ,                                       !- Zone Humidistat Humidification Set Point Schedule Name
  ,                                       !- Design Zone Air Distribution Effectiveness in Cooling Mode
  ,                                       !- Design Zone Air Distribution Effectiveness in Heating Mode
  ,                                       !- Design Zone Secondary Recirculation Fraction {dimensionless}
  ,                                       !- Design Minimum Zone Ventilation Efficiency {dimensionless}
  Coincident;                             !- Sizing Option

OS:ZoneHVAC:EquipmentList,
  {81efbbb8-e9f7-47c7-8d64-e1a28973beed}, !- Handle
  Zone HVAC Equipment List 1,             !- Name
  {22dc90b3-8e1e-4a1b-a6f5-1c6b9cc80b00}, !- Thermal Zone
  ,                                       !- Load Distribution Scheme
  {b953801b-a416-4f7c-9b46-0e908d50ff18}, !- Zone Equipment 1
  1,                                      !- Zone Equipment Cooling Sequence 1
  1,                                      !- Zone Equipment Heating or No-Load Sequence 1
  {87eb7571-9e35-40e3-af15-0dc82ea71ba1}, !- Zone Equipment Sequential Cooling Fraction Schedule Name 1
  {adc4579f-6b63-4def-96b9-57032464b79c}; !- Zone Equipment Sequential Heating Fraction Schedule Name 1

OS:AdditionalProperties,
  {f691dd65-2cc5-497e-a66f-f8bb838ccc45}, !- Handle
  {22dc90b3-8e1e-4a1b-a6f5-1c6b9cc80b00}, !- Object Name
  ObjectType,                             !- Feature Name 1
  String,                                 !- Feature Data Type 1
  conditioned space;                      !- Feature Value 1

OS:Space,
  {a0d571d2-2007-42b1-a9cb-4ef0a4937d3d}, !- Handle
  conditioned space 1,                    !- Name
  ,                                       !- Space Type Name
  ,                                       !- Default Construction Set Name
  ,                                       !- Default Schedule Set Name
  ,                                       !- Direction of Relative North {deg}
  ,                                       !- X Origin {m}
  ,                                       !- Y Origin {m}
  ,                                       !- Z Origin {m}
  ,                                       !- Building Story Name
  {22dc90b3-8e1e-4a1b-a6f5-1c6b9cc80b00}, !- Thermal Zone Name
  ,                                       !- Part of Total Floor Area
  ,                                       !- Design Specification Outdoor Air Object Name
  ,                                       !- Building Unit Name
  692.06373070848;                        !- Volume {m3}

OS:Schedule:Ruleset,
  {4ddb99ca-d496-4720-9368-013ff20f26d6}, !- Handle
  heating setpoint,                       !- Name
  {724384f0-6373-4033-9335-2d709b6590e3}, !- Schedule Type Limits Name
  {af8f6f08-b7c5-4ffd-a132-3bee182017fd}; !- Default Day Schedule Name

OS:Schedule:Day,
  {af8f6f08-b7c5-4ffd-a132-3bee182017fd}, !- Handle
  heating setpoint default day,           !- Name
  {724384f0-6373-4033-9335-2d709b6590e3}, !- Schedule Type Limits Name
  ,                                       !- Interpolate to Timestep
  24,                                     !- Hour 1
  0,                                      !- Minute 1
  0;                                      !- Value Until Time 1

OS:Schedule:Rule,
  {4c05f21a-8740-485b-af61-afea834132ec}, !- Handle
  heating setpoint allday rule,           !- Name
  {4ddb99ca-d496-4720-9368-013ff20f26d6}, !- Schedule Ruleset Name
  0,                                      !- Rule Order
  {c7018d0a-8c84-40c1-aa57-d066305ecf5e}, !- Day Schedule Name
  Yes,                                    !- Apply Sunday
  Yes,                                    !- Apply Monday
  Yes,                                    !- Apply Tuesday
  Yes,                                    !- Apply Wednesday
  Yes,                                    !- Apply Thursday
  Yes,                                    !- Apply Friday
  Yes,                                    !- Apply Saturday
  DateRange,                              !- Date Specification Type
  1,                                      !- Start Month
  1,                                      !- Start Day
  12,                                     !- End Month
  31;                                     !- End Day

OS:Schedule:Day,
  {c7018d0a-8c84-40c1-aa57-d066305ecf5e}, !- Handle
  heating setpoint day,                   !- Name
  {724384f0-6373-4033-9335-2d709b6590e3}, !- Schedule Type Limits Name
  ,                                       !- Interpolate to Timestep
  24,                                     !- Hour 1
  0,                                      !- Minute 1
  20;                                     !- Value Until Time 1

OS:Schedule:Ruleset,
  {2b9077f5-a6bd-476d-b66b-c2d02a70fd92}, !- Handle
  cooling setpoint,                       !- Name
  {724384f0-6373-4033-9335-2d709b6590e3}, !- Schedule Type Limits Name
  {cace0769-9e1b-43d6-a075-26359d013ff2}; !- Default Day Schedule Name

OS:Schedule:Day,
  {cace0769-9e1b-43d6-a075-26359d013ff2}, !- Handle
  cooling setpoint default day,           !- Name
  {724384f0-6373-4033-9335-2d709b6590e3}, !- Schedule Type Limits Name
  ,                                       !- Interpolate to Timestep
  24,                                     !- Hour 1
  0,                                      !- Minute 1
  0;                                      !- Value Until Time 1

OS:Schedule:Rule,
  {e97d6b63-9e2c-46b6-865f-35b3a5bef6df}, !- Handle
  cooling setpoint allday rule,           !- Name
  {2b9077f5-a6bd-476d-b66b-c2d02a70fd92}, !- Schedule Ruleset Name
  0,                                      !- Rule Order
  {a0dc53c5-d47d-4d06-bf3c-31a993eb98ae}, !- Day Schedule Name
  Yes,                                    !- Apply Sunday
  Yes,                                    !- Apply Monday
  Yes,                                    !- Apply Tuesday
  Yes,                                    !- Apply Wednesday
  Yes,                                    !- Apply Thursday
  Yes,                                    !- Apply Friday
  Yes,                                    !- Apply Saturday
  DateRange,                              !- Date Specification Type
  1,                                      !- Start Month
  1,                                      !- Start Day
  12,                                     !- End Month
  31;                                     !- End Day

OS:Schedule:Day,
  {a0dc53c5-d47d-4d06-bf3c-31a993eb98ae}, !- Handle
  cooling setpoint day,                   !- Name
  {724384f0-6373-4033-9335-2d709b6590e3}, !- Schedule Type Limits Name
  ,                                       !- Interpolate to Timestep
  24,                                     !- Hour 1
  0,                                      !- Minute 1
  25.5555555555556;                       !- Value Until Time 1

OS:ThermostatSetpoint:DualSetpoint,
  {dfa524dc-b50a-4ec1-9709-972a425d81d1}, !- Handle
  conditioned space temperature setpoint, !- Name
  {4ddb99ca-d496-4720-9368-013ff20f26d6}, !- Heating Setpoint Temperature Schedule Name
  {2b9077f5-a6bd-476d-b66b-c2d02a70fd92}, !- Cooling Setpoint Temperature Schedule Name
  0;                                      !- Temperature Difference Between Cutout And Setpoint {deltaC}

OS:ScheduleTypeLimits,
  {724384f0-6373-4033-9335-2d709b6590e3}, !- Handle
  Temperature,                            !- Name
  ,                                       !- Lower Limit Value
  ,                                       !- Upper Limit Value
  Continuous,                             !- Numeric Type
  Temperature;                            !- Unit Type

OS:Surface,
  {de437a1d-ebd9-4736-956d-36c7a2dcd659}, !- Handle
  Roof1,                                  !- Name
  RoofCeiling,                            !- Surface Type
  {9718d3f5-0fa7-44c7-a07f-b90efd2daba7}, !- Construction Name
  {77c92216-99b4-410a-a56e-3c158d0d729c}, !- Space Name
  Outdoors,                               !- Outside Boundary Condition
  ,                                       !- Outside Boundary Condition Object
  SunExposed,                             !- Sun Exposure
  WindExposed,                            !- Wind Exposure
  ,                                       !- View Factor to Ground
  ,                                       !- Number of Vertices
  -26.9347048849634, 58.0557891618865, 2.4384, !- X,Y,Z Vertex 1 {m}
  -26.9347048849634, 46.7895631136661, 8.0715130241102, !- X,Y,Z Vertex 2 {m}
  -14.3386812381136, 46.7895631136661, 8.0715130241102, !- X,Y,Z Vertex 3 {m}
  -14.3386812381136, 58.0557891618865, 2.4384; !- X,Y,Z Vertex 4 {m}

OS:AdditionalProperties,
  {9fb44d83-ec87-4735-a2ea-27a4c8a07c0c}, !- Handle
  {de437a1d-ebd9-4736-956d-36c7a2dcd659}, !- Object Name
  Length,                                 !- Feature Name 1
  Double,                                 !- Feature Data Type 1
  41.325536899113608,                     !- Feature Value 1
  Width,                                  !- Feature Name 2
  Double,                                 !- Feature Data Type 2
  41.325536899113601,                     !- Feature Value 2
  Azimuth,                                !- Feature Name 3
  Integer,                                !- Feature Data Type 3
  0,                                      !- Feature Value 3
  Tilt,                                   !- Feature Name 4
  Double,                                 !- Feature Data Type 4
  0.5,                                    !- Feature Value 4
  SurfaceType,                            !- Feature Name 5
  String,                                 !- Feature Data Type 5
  Roof;                                   !- Feature Value 5

OS:ThermalZone,
  {e08d7316-70b0-40d6-b29b-7815872e4aa1}, !- Handle
  attic - vented,                         !- Name
  1,                                      !- Multiplier
  ,                                       !- Ceiling Height {m}
  356.390921899745,                       !- Volume {m3}
  ,                                       !- Floor Area {m2}
  ,                                       !- Zone Inside Convection Algorithm
  ,                                       !- Zone Outside Convection Algorithm
  ,                                       !- Zone Conditioning Equipment List Name
  {346ad131-a31a-4daf-8473-f4e4c3409296}, !- Zone Air Inlet Port List
  {2c95bc04-6387-4d24-9d61-635dfc1d6638}, !- Zone Air Exhaust Port List
  {c33d3064-2c09-4c0d-9695-421610e895b2}, !- Zone Air Node Name
  {6f18e009-dc62-4d93-8f5c-316761434472}, !- Zone Return Air Port List
  ,                                       !- Primary Daylighting Control Name
  ,                                       !- Fraction of Zone Controlled by Primary Daylighting Control
  ,                                       !- Secondary Daylighting Control Name
  ,                                       !- Fraction of Zone Controlled by Secondary Daylighting Control
  ,                                       !- Illuminance Map Name
  ,                                       !- Group Rendering Name
  ,                                       !- Thermostat Name
  No;                                     !- Use Ideal Air Loads

OS:Node,
  {6cfdf7ab-304b-4e1c-ad4c-c2e87d9f4edf}, !- Handle
  Node 2,                                 !- Name
  {c33d3064-2c09-4c0d-9695-421610e895b2}, !- Inlet Port
  ;                                       !- Outlet Port

OS:Connection,
  {c33d3064-2c09-4c0d-9695-421610e895b2}, !- Handle
  {e08d7316-70b0-40d6-b29b-7815872e4aa1}, !- Source Object
  11,                                     !- Outlet Port
  {6cfdf7ab-304b-4e1c-ad4c-c2e87d9f4edf}, !- Target Object
  2;                                      !- Inlet Port

OS:PortList,
  {346ad131-a31a-4daf-8473-f4e4c3409296}, !- Handle
  {e08d7316-70b0-40d6-b29b-7815872e4aa1}; !- HVAC Component

OS:PortList,
  {2c95bc04-6387-4d24-9d61-635dfc1d6638}, !- Handle
  {e08d7316-70b0-40d6-b29b-7815872e4aa1}; !- HVAC Component

OS:PortList,
  {6f18e009-dc62-4d93-8f5c-316761434472}, !- Handle
  {e08d7316-70b0-40d6-b29b-7815872e4aa1}; !- HVAC Component

OS:Sizing:Zone,
  {3567cd4f-f78b-49f5-b380-6049a8689710}, !- Handle
  {e08d7316-70b0-40d6-b29b-7815872e4aa1}, !- Zone or ZoneList Name
  SupplyAirTemperature,                   !- Zone Cooling Design Supply Air Temperature Input Method
  14,                                     !- Zone Cooling Design Supply Air Temperature {C}
  11.11,                                  !- Zone Cooling Design Supply Air Temperature Difference {deltaC}
  SupplyAirTemperature,                   !- Zone Heating Design Supply Air Temperature Input Method
  40,                                     !- Zone Heating Design Supply Air Temperature {C}
  11.11,                                  !- Zone Heating Design Supply Air Temperature Difference {deltaC}
  0.0085,                                 !- Zone Cooling Design Supply Air Humidity Ratio {kg-H2O/kg-air}
  0.008,                                  !- Zone Heating Design Supply Air Humidity Ratio {kg-H2O/kg-air}
  ,                                       !- Zone Heating Sizing Factor
  ,                                       !- Zone Cooling Sizing Factor
  DesignDay,                              !- Cooling Design Air Flow Method
  ,                                       !- Cooling Design Air Flow Rate {m3/s}
  ,                                       !- Cooling Minimum Air Flow per Zone Floor Area {m3/s-m2}
  ,                                       !- Cooling Minimum Air Flow {m3/s}
  ,                                       !- Cooling Minimum Air Flow Fraction
  DesignDay,                              !- Heating Design Air Flow Method
  ,                                       !- Heating Design Air Flow Rate {m3/s}
  ,                                       !- Heating Maximum Air Flow per Zone Floor Area {m3/s-m2}
  ,                                       !- Heating Maximum Air Flow {m3/s}
  ,                                       !- Heating Maximum Air Flow Fraction
  No,                                     !- Account for Dedicated Outdoor Air System
  NeutralSupplyAir,                       !- Dedicated Outdoor Air System Control Strategy
  autosize,                               !- Dedicated Outdoor Air Low Setpoint Temperature for Design {C}
  autosize,                               !- Dedicated Outdoor Air High Setpoint Temperature for Design {C}
  Sensible Load Only No Latent Load,      !- Zone Load Sizing Method
  HumidityRatioDifference,                !- Zone Latent Cooling Design Supply Air Humidity Ratio Input Method
  ,                                       !- Zone Dehumidification Design Supply Air Humidity Ratio {kgWater/kgDryAir}
  0.005,                                  !- Zone Cooling Design Supply Air Humidity Ratio Difference {kgWater/kgDryAir}
  HumidityRatioDifference,                !- Zone Latent Heating Design Supply Air Humidity Ratio Input Method
  ,                                       !- Zone Humidification Design Supply Air Humidity Ratio {kgWater/kgDryAir}
  0.005,                                  !- Zone Humidification Design Supply Air Humidity Ratio Difference {kgWater/kgDryAir}
  ,                                       !- Zone Humidistat Dehumidification Set Point Schedule Name
  ,                                       !- Zone Humidistat Humidification Set Point Schedule Name
  ,                                       !- Design Zone Air Distribution Effectiveness in Cooling Mode
  ,                                       !- Design Zone Air Distribution Effectiveness in Heating Mode
  ,                                       !- Design Zone Secondary Recirculation Fraction {dimensionless}
  ,                                       !- Design Minimum Zone Ventilation Efficiency {dimensionless}
  Coincident;                             !- Sizing Option

OS:ZoneHVAC:EquipmentList,
  {798a4002-da44-43e8-a386-6fa8159b8c4d}, !- Handle
  Zone HVAC Equipment List 2,             !- Name
  {e08d7316-70b0-40d6-b29b-7815872e4aa1}; !- Thermal Zone

OS:AdditionalProperties,
  {3495c76e-4665-4bed-91dd-b9e76ba82e5d}, !- Handle
  {e08d7316-70b0-40d6-b29b-7815872e4aa1}, !- Object Name
  ObjectType,                             !- Feature Name 1
  String,                                 !- Feature Data Type 1
  attic - vented;                         !- Feature Value 1

OS:Space,
  {77c92216-99b4-410a-a56e-3c158d0d729c}, !- Handle
  attic - vented 1,                       !- Name
  ,                                       !- Space Type Name
  ,                                       !- Default Construction Set Name
  ,                                       !- Default Schedule Set Name
  ,                                       !- Direction of Relative North {deg}
  ,                                       !- X Origin {m}
  ,                                       !- Y Origin {m}
  ,                                       !- Z Origin {m}
  ,                                       !- Building Story Name
  {e08d7316-70b0-40d6-b29b-7815872e4aa1}, !- Thermal Zone Name
  ,                                       !- Part of Total Floor Area
  ,                                       !- Design Specification Outdoor Air Object Name
  ,                                       !- Building Unit Name
  356.390921899745;                       !- Volume {m3}

OS:Material,
  {265ba3ba-47e8-42a9-81a1-37a1942922c1}, !- Handle
  asphalt or fiberglass shingles,         !- Name
  Rough,                                  !- Roughness
  0.00635,                                !- Thickness {m}
  0.162714,                               !- Conductivity {W/m-K}
  1121.4,                                 !- Density {kg/m3}
  1465.45,                                !- Specific Heat {J/kg-K}
  0.9,                                    !- Thermal Absorptance
  0.85,                                   !- Solar Absorptance