
OS:Version,
  {bf85789b-c7a9-4ec5-9eba-9457b863dc38}, !- Handle
  3.9.0;                                  !- Version Identifier

OS:SimulationControl,
  {993e7355-27a8-4d0b-910c-d52b7e6e32f1}, !- Handle
  ,                                       !- Do Zone Sizing Calculation
  ,                                       !- Do System Sizing Calculation
  ,                                       !- Do Plant Sizing Calculation
  No;                                     !- Run Simulation for Sizing Periods

OS:Timestep,
  {6d39cd90-787c-44f8-b812-0716924c5529}, !- Handle
  1;                                      !- Number of Timesteps per Hour

OS:ShadowCalculation,
  {7a3caaa3-489d-4afe-8c77-07ca6c5885f8}, !- Handle
  PolygonClipping,                        !- Shading Calculation Method
  ,                                       !- Shading Calculation Update Frequency Method
  20,                                     !- Shading Calculation Update Frequency
  200,                                    !- Maximum Figures in Shadow Overlap Calculations
  ,                                       !- Polygon Clipping Algorithm
  512,                                    !- Pixel Counting Resolution
  ,                                       !- Sky Diffuse Modeling Algorithm
  No,                                     !- Output External Shading Calculation Results
  No,                                     !- Disable Self-Shading Within Shading Zone Groups
  No;                                     !- Disable Self-Shading From Shading Zone Groups to Other Zones

OS:SurfaceConvectionAlgorithm:Outside,
  {87920ec5-e80c-4f79-9bcd-39d75cda35df}, !- Handle
  DOE-2;                                  !- Algorithm

OS:SurfaceConvectionAlgorithm:Inside,
  {204cc6eb-edaa-4ae7-a599-445d06207911}, !- Handle
  TARP;                                   !- Algorithm

OS:ZoneCapacitanceMultiplier:ResearchSpecial,
  {95af71ac-ee46-423f-9bb5-c70434669cc8}, !- Handle
  7,                                      !- Temperature Capacity Multiplier
  15,                                     !- Humidity Capacity Multiplier
  ;                                       !- Carbon Dioxide Capacity Multiplier

OS:ConvergenceLimits,
  {7a173649-6899-45ee-b497-eb475cdff86f}, !- Handle
  0;                                      !- Minimum System Timestep {minutes}

OS:RunPeriod,
  {ba1f99b8-3ee9-437f-8106-59e6c0f26391}, !- Handle
  Run Period 1,                           !- Name
  1,                                      !- Begin Month
  1,                                      !- Begin Day of Month
  12,                                     !- End Month
  31,                                     !- End Day of Month
  ,                                       !- Use Weather File Holidays and Special Days
  ,                                       !- Use Weather File Daylight Saving Period
  ,                                       !- Apply Weekend Holiday Rule
  ,                                       !- Use Weather File Rain Indicators
  ,                                       !- Use Weather File Snow Indicators
  ;                                       !- Number of Times Runperiod to be Repeated

OS:PerformancePrecisionTradeoffs,
  {b16c8a88-a5a3-4db0-b472-3e674ee6c640}, !- Handle
  ,                                       !- Use Coil Direct Solutions
  CarrollMRT;                             !- Zone Radiant Exchange Algorithm

OS:WeatherFile,
  {ca62f148-a619-43cc-b229-30c2acf4032d}, !- Handle
  Buffalo Niagara Intl Ap,                !- City
  NY,                                     !- State Province Region
  USA,                                    !- Country
  TMY3,                                   !- Data Source
  725280,                                 !- WMO Number
  42.93,                                  !- Latitude {deg}
  -78.73,                                 !- Longitude {deg}
  -5,                                     !- Time Zone {hr}
  215,                                    !- Elevation {m}
  /Users/nmoore/github/urbanopt-example-geojson-project/example_project/weather/USA_NY_Buffalo-Greater.Buffalo.Intl.AP.725280_TMY3.epw, !- Url
  6B50E0FF,                               !- Checksum
  ,                                       !- Start Date Actual Year
  Sunday;                                 !- Start Day of Week

OS:YearDescription,
  {457c75e9-a070-4c36-8c0c-e33f344c0dd3}, !- Handle
  2007,                                   !- Calendar Year
  ,                                       !- Day of Week for Start Day
  ;                                       !- Is Leap Year

OS:Site,
  {ade67f33-b525-490b-9e26-bea71e7ad4de}, !- Handle
  Buffalo Niagara Intl Ap_NY,             !- Name
  42.93,                                  !- Latitude {deg}
  -78.73,                                 !- Longitude {deg}
  -5,                                     !- Time Zone {hr}
  215,                                    !- Elevation {m}
  Suburbs,                                !- Terrain
  Yes;                                    !- Keep Site Location Information

OS:RunPeriodControl:DaylightSavingTime,
  {2ad38920-a43e-48ce-855a-7abd8586fca9}, !- Handle
  Mar 12,                                 !- Start Date
  Nov 5;                                  !- End Date

OS:Site:GroundTemperature:Shallow,
  {58d22ee5-a60d-484e-9d1c-198ab3c4fb81}, !- Handle
  4.30207395723828,                       !- January Surface Ground Temperature {C}
  2.29327249652502,                       !- February Surface Ground Temperature {C}
  2.13240047156047,                       !- March Surface Ground Temperature {C}
  3.08567940719286,                       !- April Surface Ground Temperature {C}
  6.91256312497526,                       !- May Surface Ground Temperature {C}
  10.7216195949507,                       !- June Surface Ground Temperature {C}
  14.0238679822574,                       !- July Surface Ground Temperature {C}
  16.1157611184724,                       !- August Surface Ground Temperature {C}
  16.2934789303462,                       !- September Surface Ground Temperature {C}
  14.5920754632847,                       !- October Surface Ground Temperature {C}
  11.374036348653,                        !- November Surface Ground Temperature {C}
  7.68182621661674;                       !- December Surface Ground Temperature {C}

OS:ThermalZone,
  {e667c605-2d60-47e4-b857-173ed12d6d3b}, !- Handle
  conditioned space,                      !- Name
  1,                                      !- Multiplier
  ,                                       !- Ceiling Height {m}
  692.06373070848,                        !- Volume {m3}
  ,                                       !- Floor Area {m2}
  ,                                       !- Zone Inside Convection Algorithm
  ,                                       !- Zone Outside Convection Algorithm
  ,                                       !- Zone Conditioning Equipment List Name
  {a1aca8ff-d131-485f-a4e4-2a3b971266ec}, !- Zone Air Inlet Port List
  {076a18e6-4335-437a-9d4c-c020ed71c194}, !- Zone Air Exhaust Port List
  {3863cd75-671d-4107-8cdf-d11444f10684}, !- Zone Air Node Name
  {7e0a31ec-c7dc-4322-8ca5-8fdd47989915}, !- Zone Return Air Port List
  ,                                       !- Primary Daylighting Control Name
  ,                                       !- Fraction of Zone Controlled by Primary Daylighting Control
  ,                                       !- Secondary Daylighting Control Name
  ,                                       !- Fraction of Zone Controlled by Secondary Daylighting Control
  ,                                       !- Illuminance Map Name
  ,                                       !- Group Rendering Name
  {8ff85a11-d160-4ee0-b350-cb16abc28290}, !- Thermostat Name
  No;                                     !- Use Ideal Air Loads

OS:Node,
  {bfab04b1-045a-49e4-ac69-96de744f2839}, !- Handle
  Node 1,                                 !- Name
  {3863cd75-671d-4107-8cdf-d11444f10684}, !- Inlet Port
  ;                                       !- Outlet Port

OS:Connection,
  {3863cd75-671d-4107-8cdf-d11444f10684}, !- Handle
  {e667c605-2d60-47e4-b857-173ed12d6d3b}, !- Source Object
  11,                                     !- Outlet Port
  {bfab04b1-045a-49e4-ac69-96de744f2839}, !- Target Object
  2;                                      !- Inlet Port

OS:PortList,
  {a1aca8ff-d131-485f-a4e4-2a3b971266ec}, !- Handle
  {e667c605-2d60-47e4-b857-173ed12d6d3b}, !- HVAC Component
  {a0eb5237-fe95-4207-89e6-cfaf28a6c9b2}; !- Port 1

OS:PortList,
  {076a18e6-4335-437a-9d4c-c020ed71c194}, !- Handle
  {e667c605-2d60-47e4-b857-173ed12d6d3b}; !- HVAC Component

OS:PortList,
  {7e0a31ec-c7dc-4322-8ca5-8fdd47989915}, !- Handle
  {e667c605-2d60-47e4-b857-173ed12d6d3b}, !- HVAC Component
  {48c9258b-7410-4bf5-91ca-ec7f6c066be2}; !- Port 1

OS:Sizing:Zone,
  {a7af1c76-6d99-4ce7-86a9-0af35c02c8ab}, !- Handle
  {e667c605-2d60-47e4-b857-173ed12d6d3b}, !- Zone or ZoneList Name
  SupplyAirTemperature,                   !- Zone Cooling Design Supply Air Temperature Input Method
  14,                                     !- Zone Cooling Design Supply Air Temperature {C}
  11.11,                                  !- Zone Cooling Design Supply Air Temperature Difference {deltaC}
  SupplyAirTemperature,                   !- Zone Heating Design Supply Air Temperature Input Method
  40,                                     !- Zone Heating Design Supply Air Temperature {C}
  11.11,                                  !- Zone Heating Design Supply Air Temperature Difference {deltaC}
  0.0085,                                 !- Zone Cooling Design Supply Air Humidity Ratio {kg-H2O/kg-air}
  0.008,                                  !- Zone Heating Design Supply Air Humidity Ratio {kg-H2O/kg-air}
  ,                                       !- Zone Heating Sizing Factor
  ,                                       !- Zone Cooling Sizing Factor
  DesignDay,                              !- Cooling Design Air Flow Method
  ,                                       !- Cooling Design Air Flow Rate {m3/s}
  ,                                       !- Cooling Minimum Air Flow per Zone Floor Area {m3/s-m2}
  ,                                       !- Cooling Minimum Air Flow {m3/s}
  ,                                       !- Cooling Minimum Air Flow Fraction
  DesignDay,                              !- Heating Design Air Flow Method
  ,                                       !- Heating Design Air Flow Rate {m3/s}
  ,                                       !- Heating Maximum Air Flow per Zone Floor Area {m3/s-m2}
  ,                                       !- Heating Maximum Air Flow {m3/s}
  ,                                       !- Heating Maximum Air Flow Fraction
  No,                                     !- Account for Dedicated Outdoor Air System
  NeutralSupplyAir,                       !- Dedicated Outdoor Air System Control Strategy
  autosize,                               !- Dedicated Outdoor Air Low Setpoint Temperature for Design {C}
  autosize,                               !- Dedicated Outdoor Air High Setpoint Temperature for Design {C}
  Sensible Load Only No Latent Load,      !- Zone Load Sizing Method
  HumidityRatioDifference,                !- Zone Latent Cooling Design Supply Air Humidity Ratio Input Method
  ,                                       !- Zone Dehumidification Design Supply Air Humidity Ratio {kgWater/kgDryAir}
  0.005,                                  !- Zone Cooling Design Supply Air Humidity Ratio Difference {kgWater/kgDryAir}
  HumidityRatioDifference,                !- Zone Latent Heating Design Supply Air Humidity Ratio Input Method
  ,                                       !- Zone Humidification Design Supply Air Humidity Ratio {kgWater/kgDryAir}
  0.005,                                  !- Zone Humidification Design Supply Air Humidity Ratio Difference {kgWater/kgDryAir}
  ,                                       !- Zone Humidistat Dehumidification Set Point Schedule Name
  ,                                       !- Zone Humidistat Humidification Set Point Schedule Name
  ,                                       !- Design Zone Air Distribution Effectiveness in Cooling Mode
  ,                                       !- Design Zone Air Distribution Effectiveness in Heating Mode
  ,                                       !- Design Zone Secondary Recirculation Fraction {dimensionless}
  ,                                       !- Design Minimum Zone Ventilation Efficiency {dimensionless}
  Coincident;                             !- Sizing Option

OS:ZoneHVAC:EquipmentList,
  {6a9722bc-5a10-40f9-a01d-2c899d0c857e}, !- Handle
  Zone HVAC Equipment List 1,             !- Name
  {e667c605-2d60-47e4-b857-173ed12d6d3b}, !- Thermal Zone
  ,                                       !- Load Distribution Scheme
  {577a11d1-61c7-42d8-a67e-d165f72e371f}, !- Zone Equipment 1
  1,                                      !- Zone Equipment Cooling Sequence 1
  1,                                      !- Zone Equipment Heating or No-Load Sequence 1
  {68a0f96e-820e-49ae-a909-aa956a92a8e3}, !- Zone Equipment Sequential Cooling Fraction Schedule Name 1
  {db05ea48-3f26-4c0f-a5b7-2d574d53c78f}; !- Zone Equipment Sequential Heating Fraction Schedule Name 1

OS:AdditionalProperties,
  {9939645a-21d3-4494-83b0-c8e3b946270d}, !- Handle
  {e667c605-2d60-47e4-b857-173ed12d6d3b}, !- Object Name
  ObjectType,                             !- Feature Name 1
  String,                                 !- Feature Data Type 1
  conditioned space;                      !- Feature Value 1

OS:Space,
  {398afe47-24c3-4b6d-a3e0-c59add6e9c44}, !- Handle
  conditioned space 1,                    !- Name
  ,                                       !- Space Type Name
  ,                                       !- Default Construction Set Name
  ,                                       !- Default Schedule Set Name
  ,                                       !- Direction of Relative North {deg}
  ,                                       !- X Origin {m}
  ,                                       !- Y Origin {m}
  ,                                       !- Z Origin {m}
  ,                                       !- Building Story Name
  {e667c605-2d60-47e4-b857-173ed12d6d3b}, !- Thermal Zone Name
  ,                                       !- Part of Total Floor Area
  ,                                       !- Design Specification Outdoor Air Object Name
  ,                                       !- Building Unit Name
  692.06373070848;                        !- Volume {m3}

OS:Schedule:Ruleset,
  {86c316b7-8524-49f6-8cc9-45594c9aebc9}, !- Handle
  heating setpoint,                       !- Name
  {d5459e84-af4d-4e23-911d-b5f6d982c603}, !- Schedule Type Limits Name
  {831eb926-a7c7-4044-88ad-441212825235}; !- Default Day Schedule Name

OS:Schedule:Day,
  {831eb926-a7c7-4044-88ad-441212825235}, !- Handle
  heating setpoint default day,           !- Name
  {d5459e84-af4d-4e23-911d-b5f6d982c603}, !- Schedule Type Limits Name
  ,                                       !- Interpolate to Timestep
  24,                                     !- Hour 1
  0,                                      !- Minute 1
  0;                                      !- Value Until Time 1

OS:Schedule:Rule,
  {83fc5c7b-d6d1-41ea-b818-53363c6958e9}, !- Handle
  heating setpoint allday rule,           !- Name
  {86c316b7-8524-49f6-8cc9-45594c9aebc9}, !- Schedule Ruleset Name
  0,                                      !- Rule Order
  {9fd0ec3e-37de-42d4-a361-a9a83c83f1ad}, !- Day Schedule Name
  Yes,                                    !- Apply Sunday
  Yes,                                    !- Apply Monday
  Yes,                                    !- Apply Tuesday
  Yes,                                    !- Apply Wednesday
  Yes,                                    !- Apply Thursday
  Yes,                                    !- Apply Friday
  Yes,                                    !- Apply Saturday
  DateRange,                              !- Date Specification Type
  1,                                      !- Start Month
  1,                                      !- Start Day
  12,                                     !- End Month
  31;                                     !- End Day

OS:Schedule:Day,
  {9fd0ec3e-37de-42d4-a361-a9a83c83f1ad}, !- Handle
  heating setpoint day,                   !- Name
  {d5459e84-af4d-4e23-911d-b5f6d982c603}, !- Schedule Type Limits Name
  ,                                       !- Interpolate to Timestep
  24,                                     !- Hour 1
  0,                                      !- Minute 1
  20;                                     !- Value Until Time 1

OS:Schedule:Ruleset,
  {418ab199-5c34-4d55-81e2-0bc246ef5457}, !- Handle
  cooling setpoint,                       !- Name
  {d5459e84-af4d-4e23-911d-b5f6d982c603}, !- Schedule Type Limits Name
  {a8eb0f84-bd27-494f-b3f9-bb8c1f2d4150}; !- Default Day Schedule Name

OS:Schedule:Day,
  {a8eb0f84-bd27-494f-b3f9-bb8c1f2d4150}, !- Handle
  cooling setpoint default day,           !- Name
  {d5459e84-af4d-4e23-911d-b5f6d982c603}, !- Schedule Type Limits Name
  ,                                       !- Interpolate to Timestep
  24,                                     !- Hour 1
  0,                                      !- Minute 1
  0;                                      !- Value Until Time 1

OS:Schedule:Rule,
  {5a4ca2b4-ffad-46cd-a1e2-d3715e236de5}, !- Handle
  cooling setpoint allday rule,           !- Name
  {418ab199-5c34-4d55-81e2-0bc246ef5457}, !- Schedule Ruleset Name
  0,                                      !- Rule Order
  {3a7cd0c8-cc24-4f5e-b223-f4ec0a3fb358}, !- Day Schedule Name
  Yes,                                    !- Apply Sunday
  Yes,                                    !- Apply Monday
  Yes,                                    !- Apply Tuesday
  Yes,                                    !- Apply Wednesday
  Yes,                                    !- Apply Thursday
  Yes,                                    !- Apply Friday
  Yes,                                    !- Apply Saturday
  DateRange,                              !- Date Specification Type
  1,                                      !- Start Month
  1,                                      !- Start Day
  12,                                     !- End Month
  31;                                     !- End Day

OS:Schedule:Day,
  {3a7cd0c8-cc24-4f5e-b223-f4ec0a3fb358}, !- Handle
  cooling setpoint day,                   !- Name
  {d5459e84-af4d-4e23-911d-b5f6d982c603}, !- Schedule Type Limits Name
  ,                                       !- Interpolate to Timestep
  24,                                     !- Hour 1
  0,                                      !- Minute 1
  25.5555555555556;                       !- Value Until Time 1

OS:ThermostatSetpoint:DualSetpoint,
  {8ff85a11-d160-4ee0-b350-cb16abc28290}, !- Handle
  conditioned space temperature setpoint, !- Name
  {86c316b7-8524-49f6-8cc9-45594c9aebc9}, !- Heating Setpoint Temperature Schedule Name
  {418ab199-5c34-4d55-81e2-0bc246ef5457}, !- Cooling Setpoint Temperature Schedule Name
  0;                                      !- Temperature Difference Between Cutout And Setpoint {deltaC}

OS:ScheduleTypeLimits,
  {d5459e84-af4d-4e23-911d-b5f6d982c603}, !- Handle
  Temperature,                            !- Name
  ,                                       !- Lower Limit Value
  ,                                       !- Upper Limit Value
  Continuous,                             !- Numeric Type
  Temperature;                            !- Unit Type

OS:Surface,
  {9db89a7a-74f5-48ef-8345-59564cdd6943}, !- Handle
  Roof1,                                  !- Name
  RoofCeiling,                            !- Surface Type
  {473b275d-807c-48ae-b452-499f2a77fce4}, !- Construction Name
  {42ed2ce5-fa45-4e61-bfda-0767acc217a4}, !- Space Name
  Outdoors,                               !- Outside Boundary Condition
  ,                                       !- Outside Boundary Condition Object
  SunExposed,                             !- Sun Exposure
  WindExposed,                            !- Wind Exposure
  ,                                       !- View Factor to Ground
  ,                                       !- Number of Vertices
  -26.9347048849634, 58.0557891618865, 2.4384, !- X,Y,Z Vertex 1 {m}
  -26.9347048849634, 46.7895631136661, 8.0715130241102, !- X,Y,Z Vertex 2 {m}
  -14.3386812381136, 46.7895631136661, 8.0715130241102, !- X,Y,Z Vertex 3 {m}
  -14.3386812381136, 58.0557891618865, 2.4384; !- X,Y,Z Vertex 4 {m}

OS:AdditionalProperties,
  {1572f8c2-ac87-41e4-ae37-dd95352be5be}, !- Handle
  {9db89a7a-74f5-48ef-8345-59564cdd6943}, !- Object Name
  Length,                                 !- Feature Name 1
  Double,                                 !- Feature Data Type 1
  41.325536899113608,                     !- Feature Value 1
  Width,                                  !- Feature Name 2
  Double,                                 !- Feature Data Type 2
  41.325536899113601,                     !- Feature Value 2
  Azimuth,                                !- Feature Name 3
  Integer,                                !- Feature Data Type 3
  0,                                      !- Feature Value 3
  Tilt,                                   !- Feature Name 4
  Double,                                 !- Feature Data Type 4
  0.5,                                    !- Feature Value 4
  SurfaceType,                            !- Feature Name 5
  String,                                 !- Feature Data Type 5
  Roof;                                   !- Feature Value 5

OS:ThermalZone,
  {7f19a3e0-622c-49a1-9b3b-629480203898}, !- Handle
  attic - vented,                         !- Name
  1,                                      !- Multiplier
  ,                                       !- Ceiling Height {m}
  356.389957095237,                       !- Volume {m3}
  ,                                       !- Floor Area {m2}
  ,                                       !- Zone Inside Convection Algorithm
  ,                                       !- Zone Outside Convection Algorithm
  ,                                       !- Zone Conditioning Equipment List Name
  {3f886a10-2090-4d4f-8ee1-e988bea7745a}, !- Zone Air Inlet Port List
  {a246b52b-48d6-4d9e-9e79-76a63a20949d}, !- Zone Air Exhaust Port List
  {cb64264c-4da4-4aa9-8ba0-6ddd0b651a66}, !- Zone Air Node Name
  {ea17b663-6cda-4035-9abe-f51bddd77bb0}, !- Zone Return Air Port List
  ,                                       !- Primary Daylighting Control Name
  ,                                       !- Fraction of Zone Controlled by Primary Daylighting Control
  ,                                       !- Secondary Daylighting Control Name
  ,                                       !- Fraction of Zone Controlled by Secondary Daylighting Control
  ,                                       !- Illuminance Map Name
  ,                                       !- Group Rendering Name
  ,                                       !- Thermostat Name
  No;                                     !- Use Ideal Air Loads

OS:Node,
  {c75df9da-904f-4d88-94d5-799313b3cd4c}, !- Handle
  Node 2,                                 !- Name
  {cb64264c-4da4-4aa9-8ba0-6ddd0b651a66}, !- Inlet Port
  ;                                       !- Outlet Port

OS:Connection,
  {cb64264c-4da4-4aa9-8ba0-6ddd0b651a66}, !- Handle
  {7f19a3e0-622c-49a1-9b3b-629480203898}, !- Source Object
  11,                                     !- Outlet Port
  {c75df9da-904f-4d88-94d5-799313b3cd4c}, !- Target Object
  2;                                      !- Inlet Port

OS:PortList,
  {3f886a10-2090-4d4f-8ee1-e988bea7745a}, !- Handle
  {7f19a3e0-622c-49a1-9b3b-629480203898}; !- HVAC Component

OS:PortList,
  {a246b52b-48d6-4d9e-9e79-76a63a20949d}, !- Handle
  {7f19a3e0-622c-49a1-9b3b-629480203898}; !- HVAC Component

OS:PortList,
  {ea17b663-6cda-4035-9abe-f51bddd77bb0}, !- Handle
  {7f19a3e0-622c-49a1-9b3b-629480203898}; !- HVAC Component

OS:Sizing:Zone,
  {2c627710-d833-41ea-95ea-9a17d7985fb3}, !- Handle
  {7f19a3e0-622c-49a1-9b3b-629480203898}, !- Zone or ZoneList Name
  SupplyAirTemperature,                   !- Zone Cooling Design Supply Air Temperature Input Method
  14,                                     !- Zone Cooling Design Supply Air Temperature {C}
  11.11,                                  !- Zone Cooling Design Supply Air Temperature Difference {deltaC}
  SupplyAirTemperature,                   !- Zone Heating Design Supply Air Temperature Input Method
  40,                                     !- Zone Heating Design Supply Air Temperature {C}
  11.11,                                  !- Zone Heating Design Supply Air Temperature Difference {deltaC}
  0.0085,                                 !- Zone Cooling Design Supply Air Humidity Ratio {kg-H2O/kg-air}
  0.008,                                  !- Zone Heating Design Supply Air Humidity Ratio {kg-H2O/kg-air}
  ,                                       !- Zone Heating Sizing Factor
  ,                                       !- Zone Cooling Sizing Factor
  DesignDay,                              !- Cooling Design Air Flow Method
  ,                                       !- Cooling Design Air Flow Rate {m3/s}
  ,                                       !- Cooling Minimum Air Flow per Zone Floor Area {m3/s-m2}
  ,                                       !- Cooling Minimum Air Flow {m3/s}
  ,                                       !- Cooling Minimum Air Flow Fraction
  DesignDay,                              !- Heating Design Air Flow Method
  ,                                       !- Heating Design Air Flow Rate {m3/s}
  ,                                       !- Heating Maximum Air Flow per Zone Floor Area {m3/s-m2}
  ,                                       !- Heating Maximum Air Flow {m3/s}
  ,                                       !- Heating Maximum Air Flow Fraction
  No,                                     !- Account for Dedicated Outdoor Air System
  NeutralSupplyAir,                       !- Dedicated Outdoor Air System Control Strategy
  autosize,                               !- Dedicated Outdoor Air Low Setpoint Temperature for Design {C}
  autosize,                               !- Dedicated Outdoor Air High Setpoint Temperature for Design {C}
  Sensible Load Only No Latent Load,      !- Zone Load Sizing Method
  HumidityRatioDifference,                !- Zone Latent Cooling Design Supply Air Humidity Ratio Input Method
  ,                                       !- Zone Dehumidification Design Supply Air Humidity Ratio {kgWater/kgDryAir}
  0.005,                                  !- Zone Cooling Design Supply Air Humidity Ratio Difference {kgWater/kgDryAir}
  HumidityRatioDifference,                !- Zone Latent Heating Design Supply Air Humidity Ratio Input Method
  ,                                       !- Zone Humidification Design Supply Air Humidity Ratio {kgWater/kgDryAir}
  0.005,                                  !- Zone Humidification Design Supply Air Humidity Ratio Difference {kgWater/kgDryAir}
  ,                                       !- Zone Humidistat Dehumidification Set Point Schedule Name
  ,                                       !- Zone Humidistat Humidification Set Point Schedule Name
  ,                                       !- Design Zone Air Distribution Effectiveness in Cooling Mode
  ,                                       !- Design Zone Air Distribution Effectiveness in Heating Mode
  ,                                       !- Design Zone Secondary Recirculation Fraction {dimensionless}
  ,                                       !- Design Minimum Zone Ventilation Efficiency {dimensionless}
  Coincident;                             !- Sizing Option

OS:ZoneHVAC:EquipmentList,
  {bb51f55e-1bba-42a8-9240-ca2fa57c9bcf}, !- Handle
  Zone HVAC Equipment List 2,             !- Name
  {7f19a3e0-622c-49a1-9b3b-629480203898}; !- Thermal Zone

OS:AdditionalProperties,
  {e0651412-ff38-44fb-9c15-229311ef1a5d}, !- Handle
  {7f19a3e0-622c-49a1-9b3b-629480203898}, !- Object Name
  ObjectType,                             !- Feature Name 1
  String,                                 !- Feature Data Type 1
  attic - vented;                         !- Feature Value 1

OS:Space,
  {42ed2ce5-fa45-4e61-bfda-0767acc217a4}, !- Handle
  attic - vented 1,                       !- Name
  ,                                       !- Space Type Name
  ,                                       !- Default Construction Set Name
  ,                                       !- Default Schedule Set Name
  ,                                       !- Direction of Relative North {deg}
  ,                                       !- X Origin {m}
  ,                                       !- Y Origin {m}
  ,                                       !- Z Origin {m}
  ,                                       !- Building Story Name
  {7f19a3e0-622c-49a1-9b3b-629480203898}, !- Thermal Zone Name
  ,                                       !- Part of Total Floor Area
  ,                                       !- Design Specification Outdoor Air Object Name
  ,                                       !- Building Unit Name
  356.389957095237;                       !- Volume {m3}

OS:Material,
  {4ab88e52-d6c9-436f-90fb-48f3bf00b97d}, !- Handle
  asphalt or fiberglass shingles,         !- Name
  Rough,                                  !- Roughness
  0.00635,                                !- Thickness {m}
  0.162714,                               !- Conductivity {W/m-K}
  1121.4,                                 !- Density {kg/m3}
  1465.45,                                !- Specific Heat {J/kg-K}
  0.9,                                    !- Thermal Absorptance
  0.85,                                   !- Solar Absorptance