
OS:Version,
  {a62bef85-a51d-48f1-9f31-44f6ef52f57e}, !- Handle
  3.10.0;                                 !- Version Identifier

OS:SimulationControl,
  {5d2fd94e-29df-41f7-95d4-b4424931f264}, !- Handle
  ,                                       !- Do Zone Sizing Calculation
  ,                                       !- Do System Sizing Calculation
  ,                                       !- Do Plant Sizing Calculation
  No;                                     !- Run Simulation for Sizing Periods

OS:Timestep,
  {ac0cb6cc-291a-495d-b370-57ff90e8695f}, !- Handle
  1;                                      !- Number of Timesteps per Hour

OS:ShadowCalculation,
  {6a77d167-206f-4b11-aed6-1662ebf82c5a}, !- Handle
  PolygonClipping,                        !- Shading Calculation Method
  ,                                       !- Shading Calculation Update Frequency Method
  20,                                     !- Shading Calculation Update Frequency
  200,                                    !- Maximum Figures in Shadow Overlap Calculations
  ,                                       !- Polygon Clipping Algorithm
  512,                                    !- Pixel Counting Resolution
  ,                                       !- Sky Diffuse Modeling Algorithm
  No,                                     !- Output External Shading Calculation Results
  No,                                     !- Disable Self-Shading Within Shading Zone Groups
  No;                                     !- Disable Self-Shading From Shading Zone Groups to Other Zones

OS:SurfaceConvectionAlgorithm:Outside,
  {400ae6d6-7912-4e4b-94ba-f7cd820f2dd9}, !- Handle
  DOE-2;                                  !- Algorithm

OS:SurfaceConvectionAlgorithm:Inside,
  {af3abdf4-707a-4eca-ac77-047532d0f3b1}, !- Handle
  TARP;                                   !- Algorithm

OS:ZoneCapacitanceMultiplier:ResearchSpecial,
  {63146d9b-6465-4200-b43f-b8aa88df2935}, !- Handle
  7,                                      !- Temperature Capacity Multiplier
  15,                                     !- Humidity Capacity Multiplier
  ;                                       !- Carbon Dioxide Capacity Multiplier

OS:ConvergenceLimits,
  {724e0fa1-a577-452f-b05c-7d8c477b97d1}, !- Handle
  0;                                      !- Minimum System Timestep {minutes}

OS:RunPeriod,
  {956f4737-42c1-4a30-87b5-b9791a5d3567}, !- Handle
  Run Period 1,                           !- Name
  1,                                      !- Begin Month
  1,                                      !- Begin Day of Month
  12,                                     !- End Month
  31,                                     !- End Day of Month
  ,                                       !- Use Weather File Holidays and Special Days
  ,                                       !- Use Weather File Daylight Saving Period
  ,                                       !- Apply Weekend Holiday Rule
  ,                                       !- Use Weather File Rain Indicators
  ,                                       !- Use Weather File Snow Indicators
  ;                                       !- Number of Times Runperiod to be Repeated

OS:PerformancePrecisionTradeoffs,
  {d6c1e061-4ea9-487c-979c-daf31ddfcce9}, !- Handle
  ,                                       !- Use Coil Direct Solutions
  CarrollMRT;                             !- Zone Radiant Exchange Algorithm

OS:WeatherFile,
  {aeebe492-1c31-4b44-8fba-d7ccd1e138e1}, !- Handle
  Buffalo Niagara Intl Ap,                !- City
  NY,                                     !- State Province Region
  USA,                                    !- Country
  TMY3,                                   !- Data Source
  725280,                                 !- WMO Number
  42.93,                                  !- Latitude {deg}
  -78.73,                                 !- Longitude {deg}
  -5,                                     !- Time Zone {hr}
  215,                                    !- Elevation {m}
  /Users/nmoore/github/urbanopt-example-geojson-project/example_project/weather/USA_NY_Buffalo-Greater.Buffalo.Intl.AP.725280_TMY3.epw, !- Url
  6B50E0FF,                               !- Checksum
  ,                                       !- Start Date Actual Year
  Sunday;                                 !- Start Day of Week

OS:YearDescription,
  {ebdde157-8800-4dd8-a80e-10b3cb34aa8f}, !- Handle
  2007,                                   !- Calendar Year
  ,                                       !- Day of Week for Start Day
  ;                                       !- Is Leap Year

OS:Site,
  {4086f0fa-bf0b-47d7-9515-cd5490b219df}, !- Handle
  Buffalo Niagara Intl Ap_NY,             !- Name
  42.93,                                  !- Latitude {deg}
  -78.73,                                 !- Longitude {deg}
  -5,                                     !- Time Zone {hr}
  215,                                    !- Elevation {m}
  Suburbs,                                !- Terrain
  Yes;                                    !- Keep Site Location Information

OS:RunPeriodControl:DaylightSavingTime,
  {0e34e222-b8f7-41be-a81c-86fa1698cf77}, !- Handle
  Mar 12,                                 !- Start Date
  Nov 5;                                  !- End Date

OS:Site:GroundTemperature:Shallow,
  {73228294-7435-4e44-a4ce-4162786e729d}, !- Handle
  4.30207395723828,                       !- January Surface Ground Temperature {C}
  2.29327249652502,                       !- February Surface Ground Temperature {C}
  2.13240047156047,                       !- March Surface Ground Temperature {C}
  3.08567940719286,                       !- April Surface Ground Temperature {C}
  6.91256312497526,                       !- May Surface Ground Temperature {C}
  10.7216195949507,                       !- June Surface Ground Temperature {C}
  14.0238679822574,                       !- July Surface Ground Temperature {C}
  16.1157611184724,                       !- August Surface Ground Temperature {C}
  16.2934789303462,                       !- September Surface Ground Temperature {C}
  14.5920754632847,                       !- October Surface Ground Temperature {C}
  11.374036348653,                        !- November Surface Ground Temperature {C}
  7.68182621661674;                       !- December Surface Ground Temperature {C}

OS:ThermalZone,
  {218e511f-d60e-4500-80c5-d52244a83915}, !- Handle
  conditioned space,                      !- Name
  1,                                      !- Multiplier
  ,                                       !- Ceiling Height {m}
  346.03186535424,                        !- Volume {m3}
  ,                                       !- Floor Area {m2}
  ,                                       !- Zone Inside Convection Algorithm
  ,                                       !- Zone Outside Convection Algorithm
  ,                                       !- Zone Conditioning Equipment List Name
  {8784440c-959e-4e5b-aade-5a85f0dcfcf0}, !- Zone Air Inlet Port List
  {47c3015b-f19c-41f8-8eb5-2c87c024e1f4}, !- Zone Air Exhaust Port List
  {83362002-b208-4701-8bc4-3682d6782c73}, !- Zone Air Node Name
  {163efa71-08a8-4a5b-acb7-881e3a75af59}, !- Zone Return Air Port List
  ,                                       !- Primary Daylighting Control Name
  ,                                       !- Fraction of Zone Controlled by Primary Daylighting Control
  ,                                       !- Secondary Daylighting Control Name
  ,                                       !- Fraction of Zone Controlled by Secondary Daylighting Control
  ,                                       !- Illuminance Map Name
  ,                                       !- Group Rendering Name
  {1aaa43b2-dd2c-4e4d-9867-7486b3545735}, !- Thermostat Name
  No;                                     !- Use Ideal Air Loads

OS:Node,
  {2301f6d2-3b22-437d-aa18-79538546284c}, !- Handle
  Node 1,                                 !- Name
  {83362002-b208-4701-8bc4-3682d6782c73}, !- Inlet Port
  ;                                       !- Outlet Port

OS:Connection,
  {83362002-b208-4701-8bc4-3682d6782c73}, !- Handle
  {218e511f-d60e-4500-80c5-d52244a83915}, !- Source Object
  11,                                     !- Outlet Port
  {2301f6d2-3b22-437d-aa18-79538546284c}, !- Target Object
  2;                                      !- Inlet Port

OS:PortList,
  {8784440c-959e-4e5b-aade-5a85f0dcfcf0}, !- Handle
  {218e511f-d60e-4500-80c5-d52244a83915}, !- HVAC Component
  {38e67498-6096-409c-aa49-ff57ad5d5bf1}; !- Port 1

OS:PortList,
  {47c3015b-f19c-41f8-8eb5-2c87c024e1f4}, !- Handle
  {218e511f-d60e-4500-80c5-d52244a83915}; !- HVAC Component

OS:PortList,
  {163efa71-08a8-4a5b-acb7-881e3a75af59}, !- Handle
  {218e511f-d60e-4500-80c5-d52244a83915}, !- HVAC Component
  {6674b217-2b83-4c93-974d-e41d0f789be3}; !- Port 1

OS:Sizing:Zone,
  {422dab9f-e84f-4de4-9505-489aab7d21e7}, !- Handle
  {218e511f-d60e-4500-80c5-d52244a83915}, !- Zone or ZoneList Name
  SupplyAirTemperature,                   !- Zone Cooling Design Supply Air Temperature Input Method
  14,                                     !- Zone Cooling Design Supply Air Temperature {C}
  11.11,                                  !- Zone Cooling Design Supply Air Temperature Difference {deltaC}
  SupplyAirTemperature,                   !- Zone Heating Design Supply Air Temperature Input Method
  40,                                     !- Zone Heating Design Supply Air Temperature {C}
  11.11,                                  !- Zone Heating Design Supply Air Temperature Difference {deltaC}
  0.0085,                                 !- Zone Cooling Design Supply Air Humidity Ratio {kg-H2O/kg-air}
  0.008,                                  !- Zone Heating Design Supply Air Humidity Ratio {kg-H2O/kg-air}
  ,                                       !- Zone Heating Sizing Factor
  ,                                       !- Zone Cooling Sizing Factor
  DesignDay,                              !- Cooling Design Air Flow Method
  ,                                       !- Cooling Design Air Flow Rate {m3/s}
  ,                                       !- Cooling Minimum Air Flow per Zone Floor Area {m3/s-m2}
  ,                                       !- Cooling Minimum Air Flow {m3/s}
  ,                                       !- Cooling Minimum Air Flow Fraction
  DesignDay,                              !- Heating Design Air Flow Method
  ,                                       !- Heating Design Air Flow Rate {m3/s}
  ,                                       !- Heating Maximum Air Flow per Zone Floor Area {m3/s-m2}
  ,                                       !- Heating Maximum Air Flow {m3/s}
  ,                                       !- Heating Maximum Air Flow Fraction
  No,                                     !- Account for Dedicated Outdoor Air System
  NeutralSupplyAir,                       !- Dedicated Outdoor Air System Control Strategy
  autosize,                               !- Dedicated Outdoor Air Low Setpoint Temperature for Design {C}
  autosize,                               !- Dedicated Outdoor Air High Setpoint Temperature for Design {C}
  Sensible Load Only No Latent Load,      !- Zone Load Sizing Method
  HumidityRatioDifference,                !- Zone Latent Cooling Design Supply Air Humidity Ratio Input Method
  ,                                       !- Zone Dehumidification Design Supply Air Humidity Ratio {kgWater/kgDryAir}
  0.005,                                  !- Zone Cooling Design Supply Air Humidity Ratio Difference {kgWater/kgDryAir}
  HumidityRatioDifference,                !- Zone Latent Heating Design Supply Air Humidity Ratio Input Method
  ,                                       !- Zone Humidification Design Supply Air Humidity Ratio {kgWater/kgDryAir}
  0.005,                                  !- Zone Humidification Design Supply Air Humidity Ratio Difference {kgWater/kgDryAir}
  ,                                       !- Zone Humidistat Dehumidification Set Point Schedule Name
  ,                                       !- Zone Humidistat Humidification Set Point Schedule Name
  ,                                       !- Design Zone Air Distribution Effectiveness in Cooling Mode
  ,                                       !- Design Zone Air Distribution Effectiveness in Heating Mode
  ,                                       !- Design Zone Secondary Recirculation Fraction {dimensionless}
  ,                                       !- Design Minimum Zone Ventilation Efficiency {dimensionless}
  Coincident;                             !- Sizing Option

OS:ZoneHVAC:EquipmentList,
  {1e430dec-7ef6-4e2a-9bde-c7127a5b2bac}, !- Handle
  Zone HVAC Equipment List 1,             !- Name
  {218e511f-d60e-4500-80c5-d52244a83915}, !- Thermal Zone
  ,                                       !- Load Distribution Scheme
  {a6322968-5d87-4da2-8892-8968732611c9}, !- Zone Equipment 1
  1,                                      !- Zone Equipment Cooling Sequence 1
  1,                                      !- Zone Equipment Heating or No-Load Sequence 1
  {18c12d88-7940-4905-8be0-d36a3cd90bcd}, !- Zone Equipment Sequential Cooling Fraction Schedule Name 1
  {cbd39381-9a21-44fb-aa13-adb288f7e5f4}; !- Zone Equipment Sequential Heating Fraction Schedule Name 1

OS:AdditionalProperties,
  {e7b4639f-06db-448a-9149-0b11850186e8}, !- Handle
  {218e511f-d60e-4500-80c5-d52244a83915}, !- Object Name
  ObjectType,                             !- Feature Name 1
  String,                                 !- Feature Data Type 1
  conditioned space;                      !- Feature Value 1

OS:Space,
  {d70c546d-3584-4e0d-abc6-38dcc11e0427}, !- Handle
  conditioned space 1,                    !- Name
  ,                                       !- Space Type Name
  ,                                       !- Default Construction Set Name
  ,                                       !- Default Schedule Set Name
  ,                                       !- Direction of Relative North {deg}
  ,                                       !- X Origin {m}
  ,                                       !- Y Origin {m}
  ,                                       !- Z Origin {m}
  ,                                       !- Building Story Name
  {218e511f-d60e-4500-80c5-d52244a83915}, !- Thermal Zone Name
  ,                                       !- Part of Total Floor Area
  ,                                       !- Design Specification Outdoor Air Object Name
  ,                                       !- Building Unit Name
  346.03186535424;                        !- Volume {m3}

OS:Schedule:Ruleset,
  {ad65a147-7f86-4a51-bd60-746113080b90}, !- Handle
  heating setpoint,                       !- Name
  {7af09543-7f10-4e1a-861c-7e7e8c9d0d7c}, !- Schedule Type Limits Name
  {d5fa54ee-c6c0-42fa-896b-ee9d611f8a51}; !- Default Day Schedule Name

OS:Schedule:Day,
  {d5fa54ee-c6c0-42fa-896b-ee9d611f8a51}, !- Handle
  heating setpoint default day,           !- Name
  {7af09543-7f10-4e1a-861c-7e7e8c9d0d7c}, !- Schedule Type Limits Name
  ,                                       !- Interpolate to Timestep
  24,                                     !- Hour 1
  0,                                      !- Minute 1
  0;                                      !- Value Until Time 1

OS:Schedule:Rule,
  {4631c40e-0bf5-4053-8a88-5d36f80bbe19}, !- Handle
  heating setpoint allday rule,           !- Name
  {ad65a147-7f86-4a51-bd60-746113080b90}, !- Schedule Ruleset Name
  0,                                      !- Rule Order
  {c464ef58-0e6e-4598-8207-1930cbc86b8b}, !- Day Schedule Name
  Yes,                                    !- Apply Sunday
  Yes,                                    !- Apply Monday
  Yes,                                    !- Apply Tuesday
  Yes,                                    !- Apply Wednesday
  Yes,                                    !- Apply Thursday
  Yes,                                    !- Apply Friday
  Yes,                                    !- Apply Saturday
  DateRange,                              !- Date Specification Type
  1,                                      !- Start Month
  1,                                      !- Start Day
  12,                                     !- End Month
  31;                                     !- End Day

OS:Schedule:Day,
  {c464ef58-0e6e-4598-8207-1930cbc86b8b}, !- Handle
  heating setpoint day,                   !- Name
  {7af09543-7f10-4e1a-861c-7e7e8c9d0d7c}, !- Schedule Type Limits Name
  ,                                       !- Interpolate to Timestep
  24,                                     !- Hour 1
  0,                                      !- Minute 1
  20;                                     !- Value Until Time 1

OS:Schedule:Ruleset,
  {259dafc8-0757-4a84-8998-10c14bc8043e}, !- Handle
  cooling setpoint,                       !- Name
  {7af09543-7f10-4e1a-861c-7e7e8c9d0d7c}, !- Schedule Type Limits Name
  {bcbb1ea5-983f-452f-a60f-ded70ee34b68}; !- Default Day Schedule Name

OS:Schedule:Day,
  {bcbb1ea5-983f-452f-a60f-ded70ee34b68}, !- Handle
  cooling setpoint default day,           !- Name
  {7af09543-7f10-4e1a-861c-7e7e8c9d0d7c}, !- Schedule Type Limits Name
  ,                                       !- Interpolate to Timestep
  24,                                     !- Hour 1
  0,                                      !- Minute 1
  0;                                      !- Value Until Time 1

OS:Schedule:Rule,
  {315aeaa0-f669-4115-8485-f5ffbde5d318}, !- Handle
  cooling setpoint allday rule,           !- Name
  {259dafc8-0757-4a84-8998-10c14bc8043e}, !- Schedule Ruleset Name
  0,                                      !- Rule Order
  {8e6f5a8c-9080-4161-9d20-91aa681ac45f}, !- Day Schedule Name
  Yes,                                    !- Apply Sunday
  Yes,                                    !- Apply Monday
  Yes,                                    !- Apply Tuesday
  Yes,                                    !- Apply Wednesday
  Yes,                                    !- Apply Thursday
  Yes,                                    !- Apply Friday
  Yes,                                    !- Apply Saturday
  DateRange,                              !- Date Specification Type
  1,                                      !- Start Month
  1,                                      !- Start Day
  12,                                     !- End Month
  31;                                     !- End Day

OS:Schedule:Day,
  {8e6f5a8c-9080-4161-9d20-91aa681ac45f}, !- Handle
  cooling setpoint day,                   !- Name
  {7af09543-7f10-4e1a-861c-7e7e8c9d0d7c}, !- Schedule Type Limits Name
  ,                                       !- Interpolate to Timestep
  24,                                     !- Hour 1
  0,                                      !- Minute 1
  25.5555555555556;                       !- Value Until Time 1

OS:ThermostatSetpoint:DualSetpoint,
  {1aaa43b2-dd2c-4e4d-9867-7486b3545735}, !- Handle
  conditioned space temperature setpoint, !- Name
  {ad65a147-7f86-4a51-bd60-746113080b90}, !- Heating Setpoint Temperature Schedule Name
  {259dafc8-0757-4a84-8998-10c14bc8043e}, !- Cooling Setpoint Temperature Schedule Name
  0;                                      !- Temperature Difference Between Cutout And Setpoint {deltaC}

OS:ScheduleTypeLimits,
  {7af09543-7f10-4e1a-861c-7e7e8c9d0d7c}, !- Handle
  Temperature,                            !- Name
  ,                                       !- Lower Limit Value
  ,                                       !- Upper Limit Value
  Continuous,                             !- Numeric Type
  Temperature;                            !- Unit Type

OS:Surface,
  {4e4f1d13-e0aa-4eb2-8683-058f3869dbd2}, !- Handle
  Wall1,                                  !- Name
  Wall,                                   !- Surface Type
  {f4e1151d-33bf-4116-9574-3fb7aac79218}, !- Construction Name
  {d70c546d-3584-4e0d-abc6-38dcc11e0427}, !- Space Name
  Outdoors,                               !- Outside Boundary Condition
  ,                                       !- Outside Boundary Condition Object
  SunExposed,                             !- Sun Exposure
  WindExposed,                            !- Wind Exposure
  ,                                       !- View Factor to Ground
  ,                                       !- Number of Vertices
  -4.95193308575712, 6.96193691424288, 0.6096, !- X,Y,Z Vertex 1 {m}
  -4.95193308575712, 6.96193691424288, 3.048, !- X,Y,Z Vertex 2 {m}
  6.96193691424288, 6.96193691424288, 3.048, !- X,Y,Z Vertex 3 {m}
  6.96193691424288, 6.96193691424288, 0.6096; !- X,Y,Z Vertex 4 {m}

OS:AdditionalProperties,
  {373034a4-f80f-4eeb-864d-d6a418456e3e}, !- Handle
  {4e4f1d13-e0aa-4eb2-8683-058f3869dbd2}, !- Object Name
  Length,                                 !- Feature Name 1
  Double,                                 !- Feature Data Type 1
  39.087499999999999,                     !- Feature Value 1
  Azimuth,                                !- Feature Name 2
  Integer,                                !- Feature Data Type 2
  0,                                      !- Feature Value 2
  Tilt,                                   !- Feature Name 3
  Double,                                 !- Feature Data Type 3
  90,                                     !- Feature Value 3
  SurfaceType,                            !- Feature Name 4
  String,                                 !- Feature Data Type 4
  Wall;                                   !- Feature Value 4

OS:Material,
  {987bca44-5207-4e75-b428-bf4df3f611f0}, !- Handle
  wood siding,                            !- Name
  Rough,                                  !- Roughness
  0.0254,                                 !- Thickness {m}
  0.1024175,                              !- Conductivity {W/m-K}
  544.68,                                 !- Density {kg/m3}
  1172.36,                                !- Specific Heat {J/kg-K}
  0.9,                                    !- Thermal Absorptance
  0.7,                                    !- Solar Absorptance
  0.7;                                    !- Visible Absorptance

OS:Material,
  {2b87760d-cee5-450c-a3a2-41e41d670d3d}, !- Handle
  osb sheathing 0.5 in.,                  !- Name
  Rough,                                  !- Roughness
  0.0127,                                 !- Thickness {m}
  0.1154577,                              !- Conductivity {W/m-K}
  512.64,                                 !- Density {kg/m3}
  1214.23,                                !- Specific Heat {J/kg-K}
  0.9,                                    !- Thermal Absorptance
  0.7,                                    !- Solar Absorptance
  0.7;                                    !- Visible Absorptance

OS:Material,
  {13a4ba92-4685-47bd-a074-14f1514e9c80}, !- Handle
  wall stud and cavity,                   !- Name
  Rough,                                  !- Roughness
  0.1397,                                 !- Thickness {m}
  0.0929021674204099,                     !- Conductivity {W/m-K}
  139.0536,                               !- Density {kg/m3}
  1170.23755760369,                       !- Specific Heat {J/kg-K}
  0.9,                                    !- Thermal Absorptance
  0.7,                                    !- Solar Absorptance
  0.7;                                    !- Visible Absorptance

OS:Material,
  {104fc5e2-5e86-4b7f-8be5-fa5c17a87df3}, !- Handle
  gypsum board,                           !- Name
  Rough,                                  !- Roughness
  0.0127,                                 !- Thickness {m}
  0.1602906,                              !- Conductivity {W/m-K}
  801,                                    !- Density {kg/m3}
  837.4,                                  !- Specific Heat {J/kg-K}
  0.9,                                    !- Thermal Absorptance
  0.6,                                    !- Solar Absorptance
  0.6;                                    !- Visible Absorptance

OS:Construction,
  {f4e1151d-33bf-4116-9574-3fb7aac79218}, !- Handle
  Wall1 construction,                     !- Name
  ,                                       !- Surface Rendering Name
  {987bca44-5207-4e75-b428-bf4df3f611f0}, !- Layer 1
  {2b87760d-cee5-450c-a3a2-41e41d670d3d}, !- Layer 2
  {13a4ba92-4685-47bd-a074-14f1514e9c80}, !- Layer 3
  {104fc5e2-5e86-4b7f-8be5-fa5c17a87df3}; !- Layer 4

OS:Surface,
  {79c0f873-2a65-43c9-af3f-0b7cca1686fd}, !- Handle
  Wall2,                                  !- Name
  Wall,                                   !- Surface Type
  {e492640b-877c-45ee-b960-7b8f278a1554}, !- Construction Name
  {d70c546d-3584-4e0d-abc6-38dcc11e0427}, !- Space Name
  Outdoors,                               !- Outside Boundary Condition
  ,                                       !- Outside Boundary Condition Object
  SunExposed,                             !- Sun Exposure
  WindExposed,                            !- Wind Exposure
  ,                                       !- View Factor to Ground
  ,                                       !- Number of Vertices
  6.96193691424288, -1.00690691424288, 0.6096, !- X,Y,Z Vertex 1 {m}
  6.96193691424288, -1.00690691424288, 3.048, !- X,Y,Z Vertex 2 {m}
  6.96193691424288, -6.96193691424288, 3.048, !- X,Y,Z Vertex 3 {m}
  6.96193691424288, -6.96193691424288, 0.6096; !- X,Y,Z Vertex 4 {m}

OS:AdditionalProperties,
  {f31b81a7-f136-44f6-8928-5641176e6ebd}, !- Handle
  {79c0f873-2a65-43c9-af3f-0b7cca1686fd}, !- Object Name
  Length,                                 !- Feature Name 1
  Double,                                 !- Feature Data Type 1
  19.537500000000001,                     !- Feature Value 1
  Azimuth,                                !- Feature Name 2
  Integer,                                !- Feature Data Type 2
  90,                                     !- Feature Value 2
  Tilt,                                   !- Feature Name 3
  Double,                                 !- Feature Data Type 3
  90,                                     !- Feature Value 3
  SurfaceType,                            !- Feature Name 4
  String,                                 !- Feature Data Type 4
  Wall;                                   !- Feature Value 4

OS:Construction,
  {e492640b-877c-45ee-b960-7b8f278a1554}, !- Handle
  Wall2 construction,                     !- Name
  ,                                       !- Surface Rendering Name
  {987bca44-5207-4e75-b428-bf4df3f611f0}, !- Layer 1
  {2b87760d-cee5-450c-a3a2-41e41d670d3d}, !- Layer 2
  {13a4ba92-4685-47bd-a074-14f1514e9c80}, !- Layer 3
  {104fc5e2-5e86-4b7f-8be5-fa5c17a87df3}; !- Layer 4

OS:Surface,
  {b185ebb9-eaa3-4428-8075-b9f18444cc43}, !- Handle
  Wall3,                                  !- Name
  Wall,                                   !- Surface Type
  {7bfa5650-c6bc-4e9b-bf6d-0d50138cd619}, !- Construction Name
  {d70c546d-3584-4e0d-abc6-38dcc11e0427}, !- Space Name
  Outdoors,                               !- Outside Boundary Condition
  ,                                       !- Outside Boundary Condition Object
  SunExposed,                             !- Sun Exposure
  WindExposed,                            !- Wind Exposure
  ,                                       !- View Factor to Ground
  ,                                       !- Number of Vertices
  6.03290651424288, -6.96193691424288, 0.6096, !- X,Y,Z Vertex 1 {m}
  6.03290651424288, -6.96193691424288, 3.048, !- X,Y,Z Vertex 2 {m}
  -5.11896348575712, -6.96193691424288, 3.048, !- X,Y,Z Vertex 3 {m}
  -5.11896348575712, -6.96193691424288, 0.6096; !- X,Y,Z Vertex 4 {m}

OS:AdditionalProperties,
  {fcb98681-eeed-453f-8ebd-b18d4b7b8622}, !- Handle
  {b185ebb9-eaa3-4428-8075-b9f18444cc43}, !- Object Name
  Length,                                 !- Feature Name 1
  Double,                                 !- Feature Data Type 1
  36.587499999999999,                     !- Feature Value 1
  Azimuth,                                !- Feature Name 2
  Integer,                                !- Feature Data Type 2
  180,                                    !- Feature Value 2
  Tilt,                                   !- Feature Name 3
  Double,                                 !- Feature Data Type 3
  90,                                     !- Feature Value 3
  SurfaceType,                            !- Feature Name 4
  String,                                 !- Feature Data Type 4
  Wall;                                   !- Feature Value 4

OS:Construction,
  {7bfa5650-c6bc-4e9b-bf6d-0d50138cd619}, !- Handle
  Wall3 construction,                     !- Name
  ,                                       !- Surface Rendering Name
  {987bca44-5207-4e75-b428-bf4df3f611f0}, !- Layer 1
  {2b87760d-cee5-450c-a3a2-41e41d670d3d}, !- Layer 2
  {13a4ba92-4685-47bd-a074-14f1514e9c80}, !- Layer 3
  {104fc5e2-5e86-4b7f-8be5-fa5c17a87df3}; !- Layer 4

OS:Surface,
  {7385f14b-743e-4c86-9626-87e6e86f493d}, !- Handle
  Wall4,                                  !- Name
  Wall,                                   !- Surface Type
  {da00ceb0-2ed7-4344-87b0-aaa76569b587}, !- Construction Name
  {d70c546d-3584-4e0d-abc6-38dcc11e0427}, !- Space Name
  Outdoors,                               !- Outside Boundary Condition
  ,                                       !- Outside Boundary Condition Object
  SunExposed,                             !- Sun Exposure
  WindExposed,                            !- Wind Exposure
  ,                                       !- View Factor to Ground
  ,                                       !- Number of Vertices
  -6.96193691424288, 1.00690691424288, 0.6096, !- X,Y,Z Vertex 1 {m}
  -6.96193691424288, 1.00690691424288, 3.048, !- X,Y,Z Vertex 2 {m}
  -6.96193691424288, 6.96193691424288, 3.048, !- X,Y,Z Vertex 3 {m}
  -6.96193691424288, 6.96193691424288, 0.6096; !- X,Y,Z Vertex 4 {m}

OS:AdditionalProperties,
  {6503516a-9325-41be-8e29-ad2cd2c90776}, !- Handle
  {7385f14b-743e-4c86-9626-87e6e86f493d}, !- Object Name