
OS:Version,
  {44404957-2d89-4f96-bfe2-0611d1eba51a}, !- Handle
  3.9.0;                                  !- Version Identifier

OS:SimulationControl,
  {fac46f75-7178-46d0-bf41-b36b8f06e5c1}, !- Handle
  ,                                       !- Do Zone Sizing Calculation
  ,                                       !- Do System Sizing Calculation
  ,                                       !- Do Plant Sizing Calculation
  No;                                     !- Run Simulation for Sizing Periods

OS:Timestep,
  {566d563f-7f00-442b-a5f7-87432a0c463e}, !- Handle
  1;                                      !- Number of Timesteps per Hour

OS:ShadowCalculation,
  {3e399458-bc2d-48d8-96a6-9d1d464417af}, !- Handle
  PolygonClipping,                        !- Shading Calculation Method
  ,                                       !- Shading Calculation Update Frequency Method
  20,                                     !- Shading Calculation Update Frequency
  200,                                    !- Maximum Figures in Shadow Overlap Calculations
  ,                                       !- Polygon Clipping Algorithm
  512,                                    !- Pixel Counting Resolution
  ,                                       !- Sky Diffuse Modeling Algorithm
  No,                                     !- Output External Shading Calculation Results
  No,                                     !- Disable Self-Shading Within Shading Zone Groups
  No;                                     !- Disable Self-Shading From Shading Zone Groups to Other Zones

OS:SurfaceConvectionAlgorithm:Outside,
  {d8543cb7-c356-4114-b08b-4faf7eac265c}, !- Handle
  DOE-2;                                  !- Algorithm

OS:SurfaceConvectionAlgorithm:Inside,
  {3b320387-e4cc-4217-8e98-bc98e2fb90cb}, !- Handle
  TARP;                                   !- Algorithm

OS:ZoneCapacitanceMultiplier:ResearchSpecial,
  {8869e4dc-fd7b-41ff-9f90-58bec6767dc0}, !- Handle
  7,                                      !- Temperature Capacity Multiplier
  15,                                     !- Humidity Capacity Multiplier
  ;                                       !- Carbon Dioxide Capacity Multiplier

OS:ConvergenceLimits,
  {a7e8f14c-ab10-468c-881f-3d0325e3dd3e}, !- Handle
  0;                                      !- Minimum System Timestep {minutes}

OS:RunPeriod,
  {9fe75a61-27ed-451a-abd5-d551129c4e32}, !- Handle
  Run Period 1,                           !- Name
  1,                                      !- Begin Month
  1,                                      !- Begin Day of Month
  12,                                     !- End Month
  31,                                     !- End Day of Month
  ,                                       !- Use Weather File Holidays and Special Days
  ,                                       !- Use Weather File Daylight Saving Period
  ,                                       !- Apply Weekend Holiday Rule
  ,                                       !- Use Weather File Rain Indicators
  ,                                       !- Use Weather File Snow Indicators
  ;                                       !- Number of Times Runperiod to be Repeated

OS:PerformancePrecisionTradeoffs,
  {8927771d-c85d-464f-938d-6b6dacb6e987}, !- Handle
  ,                                       !- Use Coil Direct Solutions
  CarrollMRT;                             !- Zone Radiant Exchange Algorithm

OS:WeatherFile,
  {0ad81e0c-eaae-47c6-991f-33892e1a6f5d}, !- Handle
  Buffalo Niagara Intl Ap,                !- City
  NY,                                     !- State Province Region
  USA,                                    !- Country
  TMY3,                                   !- Data Source
  725280,                                 !- WMO Number
  42.93,                                  !- Latitude {deg}
  -78.73,                                 !- Longitude {deg}
  -5,                                     !- Time Zone {hr}
  215,                                    !- Elevation {m}
  /Users/nmoore/github/urbanopt-example-geojson-project/example_project/weather/USA_NY_Buffalo-Greater.Buffalo.Intl.AP.725280_TMY3.epw, !- Url
  6B50E0FF,                               !- Checksum
  ,                                       !- Start Date Actual Year
  Sunday;                                 !- Start Day of Week

OS:YearDescription,
  {82adf2b0-b0c3-4d15-a1de-9f93b4fa62c8}, !- Handle
  2007,                                   !- Calendar Year
  ,                                       !- Day of Week for Start Day
  ;                                       !- Is Leap Year

OS:Site,
  {2e226245-289c-4a63-8416-0c92a881e7e4}, !- Handle
  Buffalo Niagara Intl Ap_NY,             !- Name
  42.93,                                  !- Latitude {deg}
  -78.73,                                 !- Longitude {deg}
  -5,                                     !- Time Zone {hr}
  215,                                    !- Elevation {m}
  Suburbs,                                !- Terrain
  Yes;                                    !- Keep Site Location Information

OS:RunPeriodControl:DaylightSavingTime,
  {d1827cc9-a77b-406a-8713-4ed9dbb37169}, !- Handle
  Mar 12,                                 !- Start Date
  Nov 5;                                  !- End Date

OS:Site:GroundTemperature:Shallow,
  {26923894-36d4-4c1b-81d4-21664a7dc5f5}, !- Handle
  4.30207395723828,                       !- January Surface Ground Temperature {C}
  2.29327249652502,                       !- February Surface Ground Temperature {C}
  2.13240047156047,                       !- March Surface Ground Temperature {C}
  3.08567940719286,                       !- April Surface Ground Temperature {C}
  6.91256312497526,                       !- May Surface Ground Temperature {C}
  10.7216195949507,                       !- June Surface Ground Temperature {C}
  14.0238679822574,                       !- July Surface Ground Temperature {C}
  16.1157611184724,                       !- August Surface Ground Temperature {C}
  16.2934789303462,                       !- September Surface Ground Temperature {C}
  14.5920754632847,                       !- October Surface Ground Temperature {C}
  11.374036348653,                        !- November Surface Ground Temperature {C}
  7.68182621661674;                       !- December Surface Ground Temperature {C}

OS:ThermalZone,
  {a37f77f5-3627-494e-8ce2-e07841f59053}, !- Handle
  conditioned space,                      !- Name
  1,                                      !- Multiplier
  ,                                       !- Ceiling Height {m}
  346.03186535424,                        !- Volume {m3}
  ,                                       !- Floor Area {m2}
  ,                                       !- Zone Inside Convection Algorithm
  ,                                       !- Zone Outside Convection Algorithm
  ,                                       !- Zone Conditioning Equipment List Name
  {3bc1f952-0cd2-4c56-acb9-d1552d1fc959}, !- Zone Air Inlet Port List
  {ce427324-ea0b-4ba2-8f4b-6a44b5649713}, !- Zone Air Exhaust Port List
  {af7b45b1-7726-4aa8-8d16-6554c6ca5ce2}, !- Zone Air Node Name
  {4cd63770-2cf2-44b2-a7c3-7550956c2c27}, !- Zone Return Air Port List
  ,                                       !- Primary Daylighting Control Name
  ,                                       !- Fraction of Zone Controlled by Primary Daylighting Control
  ,                                       !- Secondary Daylighting Control Name
  ,                                       !- Fraction of Zone Controlled by Secondary Daylighting Control
  ,                                       !- Illuminance Map Name
  ,                                       !- Group Rendering Name
  {99cd64f0-f2aa-4f28-92fd-20a69bbe9d34}, !- Thermostat Name
  No;                                     !- Use Ideal Air Loads

OS:Node,
  {5f2fb91c-c27d-46db-8eb6-900dfed6576d}, !- Handle
  Node 1,                                 !- Name
  {af7b45b1-7726-4aa8-8d16-6554c6ca5ce2}, !- Inlet Port
  ;                                       !- Outlet Port

OS:Connection,
  {af7b45b1-7726-4aa8-8d16-6554c6ca5ce2}, !- Handle
  {a37f77f5-3627-494e-8ce2-e07841f59053}, !- Source Object
  11,                                     !- Outlet Port
  {5f2fb91c-c27d-46db-8eb6-900dfed6576d}, !- Target Object
  2;                                      !- Inlet Port

OS:PortList,
  {3bc1f952-0cd2-4c56-acb9-d1552d1fc959}, !- Handle
  {a37f77f5-3627-494e-8ce2-e07841f59053}, !- HVAC Component
  {538e80e9-c685-4b73-a4c7-a5c993e33030}; !- Port 1

OS:PortList,
  {ce427324-ea0b-4ba2-8f4b-6a44b5649713}, !- Handle
  {a37f77f5-3627-494e-8ce2-e07841f59053}; !- HVAC Component

OS:PortList,
  {4cd63770-2cf2-44b2-a7c3-7550956c2c27}, !- Handle
  {a37f77f5-3627-494e-8ce2-e07841f59053}, !- HVAC Component
  {d0499536-505c-4781-8c78-295f5f20e83e}; !- Port 1

OS:Sizing:Zone,
  {c8942900-b614-4cbd-ae9f-af5732f63c10}, !- Handle
  {a37f77f5-3627-494e-8ce2-e07841f59053}, !- Zone or ZoneList Name
  SupplyAirTemperature,                   !- Zone Cooling Design Supply Air Temperature Input Method
  14,                                     !- Zone Cooling Design Supply Air Temperature {C}
  11.11,                                  !- Zone Cooling Design Supply Air Temperature Difference {deltaC}
  SupplyAirTemperature,                   !- Zone Heating Design Supply Air Temperature Input Method
  40,                                     !- Zone Heating Design Supply Air Temperature {C}
  11.11,                                  !- Zone Heating Design Supply Air Temperature Difference {deltaC}
  0.0085,                                 !- Zone Cooling Design Supply Air Humidity Ratio {kg-H2O/kg-air}
  0.008,                                  !- Zone Heating Design Supply Air Humidity Ratio {kg-H2O/kg-air}
  ,                                       !- Zone Heating Sizing Factor
  ,                                       !- Zone Cooling Sizing Factor
  DesignDay,                              !- Cooling Design Air Flow Method
  ,                                       !- Cooling Design Air Flow Rate {m3/s}
  ,                                       !- Cooling Minimum Air Flow per Zone Floor Area {m3/s-m2}
  ,                                       !- Cooling Minimum Air Flow {m3/s}
  ,                                       !- Cooling Minimum Air Flow Fraction
  DesignDay,                              !- Heating Design Air Flow Method
  ,                                       !- Heating Design Air Flow Rate {m3/s}
  ,                                       !- Heating Maximum Air Flow per Zone Floor Area {m3/s-m2}
  ,                                       !- Heating Maximum Air Flow {m3/s}
  ,                                       !- Heating Maximum Air Flow Fraction
  No,                                     !- Account for Dedicated Outdoor Air System
  NeutralSupplyAir,                       !- Dedicated Outdoor Air System Control Strategy
  autosize,                               !- Dedicated Outdoor Air Low Setpoint Temperature for Design {C}
  autosize,                               !- Dedicated Outdoor Air High Setpoint Temperature for Design {C}
  Sensible Load Only No Latent Load,      !- Zone Load Sizing Method
  HumidityRatioDifference,                !- Zone Latent Cooling Design Supply Air Humidity Ratio Input Method
  ,                                       !- Zone Dehumidification Design Supply Air Humidity Ratio {kgWater/kgDryAir}
  0.005,                                  !- Zone Cooling Design Supply Air Humidity Ratio Difference {kgWater/kgDryAir}
  HumidityRatioDifference,                !- Zone Latent Heating Design Supply Air Humidity Ratio Input Method
  ,                                       !- Zone Humidification Design Supply Air Humidity Ratio {kgWater/kgDryAir}
  0.005,                                  !- Zone Humidification Design Supply Air Humidity Ratio Difference {kgWater/kgDryAir}
  ,                                       !- Zone Humidistat Dehumidification Set Point Schedule Name
  ,                                       !- Zone Humidistat Humidification Set Point Schedule Name
  ,                                       !- Design Zone Air Distribution Effectiveness in Cooling Mode
  ,                                       !- Design Zone Air Distribution Effectiveness in Heating Mode
  ,                                       !- Design Zone Secondary Recirculation Fraction {dimensionless}
  ,                                       !- Design Minimum Zone Ventilation Efficiency {dimensionless}
  Coincident;                             !- Sizing Option

OS:ZoneHVAC:EquipmentList,
  {2b6d105c-c9d8-4651-855e-a9a598a6e773}, !- Handle
  Zone HVAC Equipment List 1,             !- Name
  {a37f77f5-3627-494e-8ce2-e07841f59053}, !- Thermal Zone
  ,                                       !- Load Distribution Scheme
  {99c2e18c-5db7-4ba0-a5e6-ed0d2f002ad9}, !- Zone Equipment 1
  1,                                      !- Zone Equipment Cooling Sequence 1
  1,                                      !- Zone Equipment Heating or No-Load Sequence 1
  {5d159c80-3dd6-4f6e-8513-d17481f2f9c1}, !- Zone Equipment Sequential Cooling Fraction Schedule Name 1
  {f50b2cc1-97c4-4399-a512-bb4b0bd32c3a}; !- Zone Equipment Sequential Heating Fraction Schedule Name 1

OS:AdditionalProperties,
  {75987021-2938-4951-94a4-47cc5ff757fc}, !- Handle
  {a37f77f5-3627-494e-8ce2-e07841f59053}, !- Object Name
  ObjectType,                             !- Feature Name 1
  String,                                 !- Feature Data Type 1
  conditioned space;                      !- Feature Value 1

OS:Space,
  {a73c4492-7019-49c8-ace8-60c8f01ab7a1}, !- Handle
  conditioned space 1,                    !- Name
  ,                                       !- Space Type Name
  ,                                       !- Default Construction Set Name
  ,                                       !- Default Schedule Set Name
  ,                                       !- Direction of Relative North {deg}
  ,                                       !- X Origin {m}
  ,                                       !- Y Origin {m}
  ,                                       !- Z Origin {m}
  ,                                       !- Building Story Name
  {a37f77f5-3627-494e-8ce2-e07841f59053}, !- Thermal Zone Name
  ,                                       !- Part of Total Floor Area
  ,                                       !- Design Specification Outdoor Air Object Name
  ,                                       !- Building Unit Name
  346.03186535424;                        !- Volume {m3}

OS:Schedule:Ruleset,
  {ce49ca8d-7c67-4fca-973f-73cca2c372dc}, !- Handle
  heating setpoint,                       !- Name
  {d8d1b6ce-5d64-4343-ae0f-81b89e678090}, !- Schedule Type Limits Name
  {73b10c43-72a9-4245-b3f2-f69f644e1102}; !- Default Day Schedule Name

OS:Schedule:Day,
  {73b10c43-72a9-4245-b3f2-f69f644e1102}, !- Handle
  heating setpoint default day,           !- Name
  {d8d1b6ce-5d64-4343-ae0f-81b89e678090}, !- Schedule Type Limits Name
  ,                                       !- Interpolate to Timestep
  24,                                     !- Hour 1
  0,                                      !- Minute 1
  0;                                      !- Value Until Time 1

OS:Schedule:Rule,
  {bdc37d8f-ee47-49b0-bd63-47033292058c}, !- Handle
  heating setpoint allday rule,           !- Name
  {ce49ca8d-7c67-4fca-973f-73cca2c372dc}, !- Schedule Ruleset Name
  0,                                      !- Rule Order
  {7ec67f43-b1b6-4641-81c0-a22066cc9dcd}, !- Day Schedule Name
  Yes,                                    !- Apply Sunday
  Yes,                                    !- Apply Monday
  Yes,                                    !- Apply Tuesday
  Yes,                                    !- Apply Wednesday
  Yes,                                    !- Apply Thursday
  Yes,                                    !- Apply Friday
  Yes,                                    !- Apply Saturday
  DateRange,                              !- Date Specification Type
  1,                                      !- Start Month
  1,                                      !- Start Day
  12,                                     !- End Month
  31;                                     !- End Day

OS:Schedule:Day,
  {7ec67f43-b1b6-4641-81c0-a22066cc9dcd}, !- Handle
  heating setpoint day,                   !- Name
  {d8d1b6ce-5d64-4343-ae0f-81b89e678090}, !- Schedule Type Limits Name
  ,                                       !- Interpolate to Timestep
  24,                                     !- Hour 1
  0,                                      !- Minute 1
  20;                                     !- Value Until Time 1

OS:Schedule:Ruleset,
  {828d3d41-5914-4456-9d5d-1f89eb619f1b}, !- Handle
  cooling setpoint,                       !- Name
  {d8d1b6ce-5d64-4343-ae0f-81b89e678090}, !- Schedule Type Limits Name
  {e77d2226-8c10-407a-9230-1ce8f67974ca}; !- Default Day Schedule Name

OS:Schedule:Day,
  {e77d2226-8c10-407a-9230-1ce8f67974ca}, !- Handle
  cooling setpoint default day,           !- Name
  {d8d1b6ce-5d64-4343-ae0f-81b89e678090}, !- Schedule Type Limits Name
  ,                                       !- Interpolate to Timestep
  24,                                     !- Hour 1
  0,                                      !- Minute 1
  0;                                      !- Value Until Time 1

OS:Schedule:Rule,
  {bb3672bc-d1d0-46d8-b467-e7167ffbbc6b}, !- Handle
  cooling setpoint allday rule,           !- Name
  {828d3d41-5914-4456-9d5d-1f89eb619f1b}, !- Schedule Ruleset Name
  0,                                      !- Rule Order
  {0696c171-1499-4306-9110-3a8b79e4a441}, !- Day Schedule Name
  Yes,                                    !- Apply Sunday
  Yes,                                    !- Apply Monday
  Yes,                                    !- Apply Tuesday
  Yes,                                    !- Apply Wednesday
  Yes,                                    !- Apply Thursday
  Yes,                                    !- Apply Friday
  Yes,                                    !- Apply Saturday
  DateRange,                              !- Date Specification Type
  1,                                      !- Start Month
  1,                                      !- Start Day
  12,                                     !- End Month
  31;                                     !- End Day

OS:Schedule:Day,
  {0696c171-1499-4306-9110-3a8b79e4a441}, !- Handle
  cooling setpoint day,                   !- Name
  {d8d1b6ce-5d64-4343-ae0f-81b89e678090}, !- Schedule Type Limits Name
  ,                                       !- Interpolate to Timestep
  24,                                     !- Hour 1
  0,                                      !- Minute 1
  25.5555555555556;                       !- Value Until Time 1

OS:ThermostatSetpoint:DualSetpoint,
  {99cd64f0-f2aa-4f28-92fd-20a69bbe9d34}, !- Handle
  conditioned space temperature setpoint, !- Name
  {ce49ca8d-7c67-4fca-973f-73cca2c372dc}, !- Heating Setpoint Temperature Schedule Name
  {828d3d41-5914-4456-9d5d-1f89eb619f1b}, !- Cooling Setpoint Temperature Schedule Name
  0;                                      !- Temperature Difference Between Cutout And Setpoint {deltaC}

OS:ScheduleTypeLimits,
  {d8d1b6ce-5d64-4343-ae0f-81b89e678090}, !- Handle
  Temperature,                            !- Name
  ,                                       !- Lower Limit Value
  ,                                       !- Upper Limit Value
  Continuous,                             !- Numeric Type
  Temperature;                            !- Unit Type

OS:Surface,
  {4bff77bb-edad-4c4c-8708-d52de8dac152}, !- Handle
  Wall1,                                  !- Name
  Wall,                                   !- Surface Type
  {8aa6b56a-56cc-40a4-9c86-2e5281a5fc29}, !- Construction Name
  {a73c4492-7019-49c8-ace8-60c8f01ab7a1}, !- Space Name
  Outdoors,                               !- Outside Boundary Condition
  ,                                       !- Outside Boundary Condition Object
  SunExposed,                             !- Sun Exposure
  WindExposed,                            !- Wind Exposure
  ,                                       !- View Factor to Ground
  ,                                       !- Number of Vertices
  -4.95193308575712, 6.96193691424288, 0.6096, !- X,Y,Z Vertex 1 {m}
  -4.95193308575712, 6.96193691424288, 3.048, !- X,Y,Z Vertex 2 {m}
  6.96193691424288, 6.96193691424288, 3.048, !- X,Y,Z Vertex 3 {m}
  6.96193691424288, 6.96193691424288, 0.6096; !- X,Y,Z Vertex 4 {m}

OS:AdditionalProperties,
  {7ca8ac23-2232-4734-8ec0-5e587489c521}, !- Handle
  {4bff77bb-edad-4c4c-8708-d52de8dac152}, !- Object Name
  Length,                                 !- Feature Name 1
  Double,                                 !- Feature Data Type 1
  39.087499999999999,                     !- Feature Value 1
  Azimuth,                                !- Feature Name 2
  Integer,                                !- Feature Data Type 2
  0,                                      !- Feature Value 2
  Tilt,                                   !- Feature Name 3
  Double,                                 !- Feature Data Type 3
  90,                                     !- Feature Value 3
  SurfaceType,                            !- Feature Name 4
  String,                                 !- Feature Data Type 4
  Wall;                                   !- Feature Value 4

OS:Material,
  {5acb700c-3369-484f-b9b5-279bbfa6b597}, !- Handle
  wood siding,                            !- Name
  Rough,                                  !- Roughness
  0.0254,                                 !- Thickness {m}
  0.1024175,                              !- Conductivity {W/m-K}
  544.68,                                 !- Density {kg/m3}
  1172.36,                                !- Specific Heat {J/kg-K}
  0.9,                                    !- Thermal Absorptance
  0.7,                                    !- Solar Absorptance
  0.7;                                    !- Visible Absorptance

OS:Material,
  {5a5eefad-3ccf-4c5e-b7c9-10b15cc40d0d}, !- Handle
  osb sheathing 0.5 in.,                  !- Name
  Rough,                                  !- Roughness
  0.0127,                                 !- Thickness {m}
  0.1154577,                              !- Conductivity {W/m-K}
  512.64,                                 !- Density {kg/m3}
  1214.23,                                !- Specific Heat {J/kg-K}
  0.9,                                    !- Thermal Absorptance
  0.7,                                    !- Solar Absorptance
  0.7;                                    !- Visible Absorptance

OS:Material,
  {7cab0b60-0fe3-499d-9fbc-dc14760ebfee}, !- Handle
  wall stud and cavity,                   !- Name
  Rough,                                  !- Roughness
  0.1397,                                 !- Thickness {m}
  0.0929021674204099,                     !- Conductivity {W/m-K}
  139.0536,                               !- Density {kg/m3}
  1170.23755760369,                       !- Specific Heat {J/kg-K}
  0.9,                                    !- Thermal Absorptance
  0.7,                                    !- Solar Absorptance
  0.7;                                    !- Visible Absorptance

OS:Material,
  {0347190b-8578-4599-97b2-14b1171a7a78}, !- Handle
  gypsum board,                           !- Name
  Rough,                                  !- Roughness
  0.0127,                                 !- Thickness {m}
  0.1602906,                              !- Conductivity {W/m-K}
  801,                                    !- Density {kg/m3}
  837.4,                                  !- Specific Heat {J/kg-K}
  0.9,                                    !- Thermal Absorptance
  0.6,                                    !- Solar Absorptance
  0.6;                                    !- Visible Absorptance

OS:Construction,
  {8aa6b56a-56cc-40a4-9c86-2e5281a5fc29}, !- Handle
  Wall1 construction,                     !- Name
  ,                                       !- Surface Rendering Name
  {5acb700c-3369-484f-b9b5-279bbfa6b597}, !- Layer 1
  {5a5eefad-3ccf-4c5e-b7c9-10b15cc40d0d}, !- Layer 2
  {7cab0b60-0fe3-499d-9fbc-dc14760ebfee}, !- Layer 3
  {0347190b-8578-4599-97b2-14b1171a7a78}; !- Layer 4

OS:Surface,
  {199bc3f6-1429-4513-9056-7505962593c4}, !- Handle
  Wall2,                                  !- Name
  Wall,                                   !- Surface Type
  {3d932256-5995-4862-87c1-62df6c6aa201}, !- Construction Name
  {a73c4492-7019-49c8-ace8-60c8f01ab7a1}, !- Space Name
  Outdoors,                               !- Outside Boundary Condition
  ,                                       !- Outside Boundary Condition Object
  SunExposed,                             !- Sun Exposure
  WindExposed,                            !- Wind Exposure
  ,                                       !- View Factor to Ground
  ,                                       !- Number of Vertices
  6.96193691424288, -1.00690691424288, 0.6096, !- X,Y,Z Vertex 1 {m}
  6.96193691424288, -1.00690691424288, 3.048, !- X,Y,Z Vertex 2 {m}
  6.96193691424288, -6.96193691424288, 3.048, !- X,Y,Z Vertex 3 {m}
  6.96193691424288, -6.96193691424288, 0.6096; !- X,Y,Z Vertex 4 {m}

OS:AdditionalProperties,
  {6a6b04fe-8283-4e44-85ac-7cb148a712c3}, !- Handle
  {199bc3f6-1429-4513-9056-7505962593c4}, !- Object Name
  Length,                                 !- Feature Name 1
  Double,                                 !- Feature Data Type 1
  19.537500000000001,                     !- Feature Value 1
  Azimuth,                                !- Feature Name 2
  Integer,                                !- Feature Data Type 2
  90,                                     !- Feature Value 2
  Tilt,                                   !- Feature Name 3
  Double,                                 !- Feature Data Type 3
  90,                                     !- Feature Value 3
  SurfaceType,                            !- Feature Name 4
  String,                                 !- Feature Data Type 4
  Wall;                                   !- Feature Value 4

OS:Construction,
  {3d932256-5995-4862-87c1-62df6c6aa201}, !- Handle
  Wall2 construction,                     !- Name
  ,                                       !- Surface Rendering Name
  {5acb700c-3369-484f-b9b5-279bbfa6b597}, !- Layer 1
  {5a5eefad-3ccf-4c5e-b7c9-10b15cc40d0d}, !- Layer 2
  {7cab0b60-0fe3-499d-9fbc-dc14760ebfee}, !- Layer 3
  {0347190b-8578-4599-97b2-14b1171a7a78}; !- Layer 4

OS:Surface,
  {5b79d80a-3c90-4253-a031-b90b53955a5d}, !- Handle
  Wall3,                                  !- Name
  Wall,                                   !- Surface Type
  {ce63f975-735d-42b8-9b91-4f972625e68f}, !- Construction Name
  {a73c4492-7019-49c8-ace8-60c8f01ab7a1}, !- Space Name
  Outdoors,                               !- Outside Boundary Condition
  ,                                       !- Outside Boundary Condition Object
  SunExposed,                             !- Sun Exposure
  WindExposed,                            !- Wind Exposure
  ,                                       !- View Factor to Ground
  ,                                       !- Number of Vertices
  6.03290651424288, -6.96193691424288, 0.6096, !- X,Y,Z Vertex 1 {m}
  6.03290651424288, -6.96193691424288, 3.048, !- X,Y,Z Vertex 2 {m}
  -5.11896348575712, -6.96193691424288, 3.048, !- X,Y,Z Vertex 3 {m}
  -5.11896348575712, -6.96193691424288, 0.6096; !- X,Y,Z Vertex 4 {m}

OS:AdditionalProperties,
  {9a02ff96-68f7-4561-9339-fa4790f3f230}, !- Handle
  {5b79d80a-3c90-4253-a031-b90b53955a5d}, !- Object Name
  Length,                                 !- Feature Name 1
  Double,                                 !- Feature Data Type 1
  36.587499999999999,                     !- Feature Value 1
  Azimuth,                                !- Feature Name 2
  Integer,                                !- Feature Data Type 2
  180,                                    !- Feature Value 2
  Tilt,                                   !- Feature Name 3
  Double,                                 !- Feature Data Type 3
  90,                                     !- Feature Value 3
  SurfaceType,                            !- Feature Name 4
  String,                                 !- Feature Data Type 4
  Wall;                                   !- Feature Value 4

OS:Construction,
  {ce63f975-735d-42b8-9b91-4f972625e68f}, !- Handle
  Wall3 construction,                     !- Name
  ,                                       !- Surface Rendering Name
  {5acb700c-3369-484f-b9b5-279bbfa6b597}, !- Layer 1
  {5a5eefad-3ccf-4c5e-b7c9-10b15cc40d0d}, !- Layer 2
  {7cab0b60-0fe3-499d-9fbc-dc14760ebfee}, !- Layer 3
  {0347190b-8578-4599-97b2-14b1171a7a78}; !- Layer 4

OS:Surface,
  {fd72cb02-f3b6-4bb7-8222-5df2ab135e24}, !- Handle
  Wall4,                                  !- Name
  Wall,                                   !- Surface Type
  {30eb2de3-c8ef-4278-b685-a6c1c36d5e88}, !- Construction Name
  {a73c4492-7019-49c8-ace8-60c8f01ab7a1}, !- Space Name
  Outdoors,                               !- Outside Boundary Condition
  ,                                       !- Outside Boundary Condition Object
  SunExposed,                             !- Sun Exposure
  WindExposed,                            !- Wind Exposure
  ,                                       !- View Factor to Ground
  ,                                       !- Number of Vertices
  -6.96193691424288, 1.00690691424288, 0.6096, !- X,Y,Z Vertex 1 {m}
  -6.96193691424288, 1.00690691424288, 3.048, !- X,Y,Z Vertex 2 {m}
  -6.96193691424288, 6.96193691424288, 3.048, !- X,Y,Z Vertex 3 {m}
  -6.96193691424288, 6.96193691424288, 0.6096; !- X,Y,Z Vertex 4 {m}

OS:AdditionalProperties,
  {da7b572c-a1f3-44eb-b16a-f9a7f34fecae}, !- Handle
  {fd72cb02-f3b6-4bb7-8222-5df2ab135e24}, !- Object Name