
OS:Version,
  {c0dff14b-d00e-49e2-ab11-b0c295128e8f}, !- Handle
  3.9.0;                                  !- Version Identifier

OS:SimulationControl,
  {ddcd94c0-8e2b-47c4-8c76-0166348ffb78}, !- Handle
  ,                                       !- Do Zone Sizing Calculation
  ,                                       !- Do System Sizing Calculation
  ,                                       !- Do Plant Sizing Calculation
  No;                                     !- Run Simulation for Sizing Periods

OS:Timestep,
  {76bf2c82-5a81-43cf-96dd-39cff1bd099a}, !- Handle
  1;                                      !- Number of Timesteps per Hour

OS:ShadowCalculation,
  {6e1ceb00-b66f-466e-8551-cda4e3c2e7f8}, !- Handle
  PolygonClipping,                        !- Shading Calculation Method
  ,                                       !- Shading Calculation Update Frequency Method
  20,                                     !- Shading Calculation Update Frequency
  200,                                    !- Maximum Figures in Shadow Overlap Calculations
  ,                                       !- Polygon Clipping Algorithm
  512,                                    !- Pixel Counting Resolution
  ,                                       !- Sky Diffuse Modeling Algorithm
  No,                                     !- Output External Shading Calculation Results
  No,                                     !- Disable Self-Shading Within Shading Zone Groups
  No;                                     !- Disable Self-Shading From Shading Zone Groups to Other Zones

OS:SurfaceConvectionAlgorithm:Outside,
  {a78c3887-5e4c-442c-96b3-8f373fd61860}, !- Handle
  DOE-2;                                  !- Algorithm

OS:SurfaceConvectionAlgorithm:Inside,
  {e0861281-e7ae-4cac-9096-df0dda47f3da}, !- Handle
  TARP;                                   !- Algorithm

OS:ZoneCapacitanceMultiplier:ResearchSpecial,
  {2a4d6b34-8fb7-46d1-87fb-b6737f3e514f}, !- Handle
  7,                                      !- Temperature Capacity Multiplier
  15,                                     !- Humidity Capacity Multiplier
  ;                                       !- Carbon Dioxide Capacity Multiplier

OS:ConvergenceLimits,
  {fec8485a-18bd-4647-b9e1-21c6b06b2eac}, !- Handle
  0;                                      !- Minimum System Timestep {minutes}

OS:RunPeriod,
  {6c0acc64-43bb-4a5b-af6d-f9010a7e1875}, !- Handle
  Run Period 1,                           !- Name
  1,                                      !- Begin Month
  1,                                      !- Begin Day of Month
  12,                                     !- End Month
  31,                                     !- End Day of Month
  ,                                       !- Use Weather File Holidays and Special Days
  ,                                       !- Use Weather File Daylight Saving Period
  ,                                       !- Apply Weekend Holiday Rule
  ,                                       !- Use Weather File Rain Indicators
  ,                                       !- Use Weather File Snow Indicators
  ;                                       !- Number of Times Runperiod to be Repeated

OS:PerformancePrecisionTradeoffs,
  {5564d1b8-25ee-4489-b01a-1a0f55a0785d}, !- Handle
  ,                                       !- Use Coil Direct Solutions
  CarrollMRT;                             !- Zone Radiant Exchange Algorithm

OS:WeatherFile,
  {f309ccc8-f5c7-4b65-bae6-273a82e145ff}, !- Handle
  Buffalo Niagara Intl Ap,                !- City
  NY,                                     !- State Province Region
  USA,                                    !- Country
  TMY3,                                   !- Data Source
  725280,                                 !- WMO Number
  42.93,                                  !- Latitude {deg}
  -78.73,                                 !- Longitude {deg}
  -5,                                     !- Time Zone {hr}
  215,                                    !- Elevation {m}
  /Users/nmoore/github/urbanopt-example-geojson-project/example_project/weather/USA_NY_Buffalo-Greater.Buffalo.Intl.AP.725280_TMY3.epw, !- Url
  6B50E0FF,                               !- Checksum
  ,                                       !- Start Date Actual Year
  Sunday;                                 !- Start Day of Week

OS:YearDescription,
  {bacdf12a-4144-4e86-af03-e85b02210a96}, !- Handle
  2007,                                   !- Calendar Year
  ,                                       !- Day of Week for Start Day
  ;                                       !- Is Leap Year

OS:Site,
  {adcf7691-18a2-4d47-a257-ebdb48524efa}, !- Handle
  Buffalo Niagara Intl Ap_NY,             !- Name
  42.93,                                  !- Latitude {deg}
  -78.73,                                 !- Longitude {deg}
  -5,                                     !- Time Zone {hr}
  215,                                    !- Elevation {m}
  Suburbs,                                !- Terrain
  Yes;                                    !- Keep Site Location Information

OS:RunPeriodControl:DaylightSavingTime,
  {8cb89a20-a914-415a-bfdd-0235a26ed183}, !- Handle
  Mar 12,                                 !- Start Date
  Nov 5;                                  !- End Date

OS:Site:GroundTemperature:Shallow,
  {068bbcbd-7c0e-43e7-aec7-edf429cf5c20}, !- Handle
  4.30207395723828,                       !- January Surface Ground Temperature {C}
  2.29327249652502,                       !- February Surface Ground Temperature {C}
  2.13240047156047,                       !- March Surface Ground Temperature {C}
  3.08567940719286,                       !- April Surface Ground Temperature {C}
  6.91256312497526,                       !- May Surface Ground Temperature {C}
  10.7216195949507,                       !- June Surface Ground Temperature {C}
  14.0238679822574,                       !- July Surface Ground Temperature {C}
  16.1157611184724,                       !- August Surface Ground Temperature {C}
  16.2934789303462,                       !- September Surface Ground Temperature {C}
  14.5920754632847,                       !- October Surface Ground Temperature {C}
  11.374036348653,                        !- November Surface Ground Temperature {C}
  7.68182621661674;                       !- December Surface Ground Temperature {C}

OS:ThermalZone,
  {f28ae0b0-fd21-4813-831a-c939a7c661a5}, !- Handle
  conditioned space,                      !- Name
  1,                                      !- Multiplier
  ,                                       !- Ceiling Height {m}
  692.06373070848,                        !- Volume {m3}
  ,                                       !- Floor Area {m2}
  ,                                       !- Zone Inside Convection Algorithm
  ,                                       !- Zone Outside Convection Algorithm
  ,                                       !- Zone Conditioning Equipment List Name
  {9b06d9a3-198b-45ad-89bb-ff0ae63ba7b7}, !- Zone Air Inlet Port List
  {7dde359f-5455-45c7-bb16-39127d2c1322}, !- Zone Air Exhaust Port List
  {3f4b160f-54bd-4e93-931a-1ffe5ba74948}, !- Zone Air Node Name
  {3f8aa8ba-b68e-4b97-b7f4-c4e0a7a48c11}, !- Zone Return Air Port List
  ,                                       !- Primary Daylighting Control Name
  ,                                       !- Fraction of Zone Controlled by Primary Daylighting Control
  ,                                       !- Secondary Daylighting Control Name
  ,                                       !- Fraction of Zone Controlled by Secondary Daylighting Control
  ,                                       !- Illuminance Map Name
  ,                                       !- Group Rendering Name
  {13b265e6-03ee-46a9-b94e-1c4c4afe2f83}, !- Thermostat Name
  No;                                     !- Use Ideal Air Loads

OS:Node,
  {970e4cc0-6241-4aa8-bf12-b243657343df}, !- Handle
  Node 1,                                 !- Name
  {3f4b160f-54bd-4e93-931a-1ffe5ba74948}, !- Inlet Port
  ;                                       !- Outlet Port

OS:Connection,
  {3f4b160f-54bd-4e93-931a-1ffe5ba74948}, !- Handle
  {f28ae0b0-fd21-4813-831a-c939a7c661a5}, !- Source Object
  11,                                     !- Outlet Port
  {970e4cc0-6241-4aa8-bf12-b243657343df}, !- Target Object
  2;                                      !- Inlet Port

OS:PortList,
  {9b06d9a3-198b-45ad-89bb-ff0ae63ba7b7}, !- Handle
  {f28ae0b0-fd21-4813-831a-c939a7c661a5}, !- HVAC Component
  {d4480909-1ef7-4490-b4a8-5c9d064dc73b}; !- Port 1

OS:PortList,
  {7dde359f-5455-45c7-bb16-39127d2c1322}, !- Handle
  {f28ae0b0-fd21-4813-831a-c939a7c661a5}; !- HVAC Component

OS:PortList,
  {3f8aa8ba-b68e-4b97-b7f4-c4e0a7a48c11}, !- Handle
  {f28ae0b0-fd21-4813-831a-c939a7c661a5}, !- HVAC Component
  {94b91639-7b12-4d2f-b03c-2b8919613e0a}; !- Port 1

OS:Sizing:Zone,
  {79ea1e67-6f51-4619-87b6-c186787df035}, !- Handle
  {f28ae0b0-fd21-4813-831a-c939a7c661a5}, !- Zone or ZoneList Name
  SupplyAirTemperature,                   !- Zone Cooling Design Supply Air Temperature Input Method
  14,                                     !- Zone Cooling Design Supply Air Temperature {C}
  11.11,                                  !- Zone Cooling Design Supply Air Temperature Difference {deltaC}
  SupplyAirTemperature,                   !- Zone Heating Design Supply Air Temperature Input Method
  40,                                     !- Zone Heating Design Supply Air Temperature {C}
  11.11,                                  !- Zone Heating Design Supply Air Temperature Difference {deltaC}
  0.0085,                                 !- Zone Cooling Design Supply Air Humidity Ratio {kg-H2O/kg-air}
  0.008,                                  !- Zone Heating Design Supply Air Humidity Ratio {kg-H2O/kg-air}
  ,                                       !- Zone Heating Sizing Factor
  ,                                       !- Zone Cooling Sizing Factor
  DesignDay,                              !- Cooling Design Air Flow Method
  ,                                       !- Cooling Design Air Flow Rate {m3/s}
  ,                                       !- Cooling Minimum Air Flow per Zone Floor Area {m3/s-m2}
  ,                                       !- Cooling Minimum Air Flow {m3/s}
  ,                                       !- Cooling Minimum Air Flow Fraction
  DesignDay,                              !- Heating Design Air Flow Method
  ,                                       !- Heating Design Air Flow Rate {m3/s}
  ,                                       !- Heating Maximum Air Flow per Zone Floor Area {m3/s-m2}
  ,                                       !- Heating Maximum Air Flow {m3/s}
  ,                                       !- Heating Maximum Air Flow Fraction
  No,                                     !- Account for Dedicated Outdoor Air System
  NeutralSupplyAir,                       !- Dedicated Outdoor Air System Control Strategy
  autosize,                               !- Dedicated Outdoor Air Low Setpoint Temperature for Design {C}
  autosize,                               !- Dedicated Outdoor Air High Setpoint Temperature for Design {C}
  Sensible Load Only No Latent Load,      !- Zone Load Sizing Method
  HumidityRatioDifference,                !- Zone Latent Cooling Design Supply Air Humidity Ratio Input Method
  ,                                       !- Zone Dehumidification Design Supply Air Humidity Ratio {kgWater/kgDryAir}
  0.005,                                  !- Zone Cooling Design Supply Air Humidity Ratio Difference {kgWater/kgDryAir}
  HumidityRatioDifference,                !- Zone Latent Heating Design Supply Air Humidity Ratio Input Method
  ,                                       !- Zone Humidification Design Supply Air Humidity Ratio {kgWater/kgDryAir}
  0.005,                                  !- Zone Humidification Design Supply Air Humidity Ratio Difference {kgWater/kgDryAir}
  ,                                       !- Zone Humidistat Dehumidification Set Point Schedule Name
  ,                                       !- Zone Humidistat Humidification Set Point Schedule Name
  ,                                       !- Design Zone Air Distribution Effectiveness in Cooling Mode
  ,                                       !- Design Zone Air Distribution Effectiveness in Heating Mode
  ,                                       !- Design Zone Secondary Recirculation Fraction {dimensionless}
  ,                                       !- Design Minimum Zone Ventilation Efficiency {dimensionless}
  Coincident;                             !- Sizing Option

OS:ZoneHVAC:EquipmentList,
  {8efdb574-e1f5-4950-b81c-e9eeda1dedf4}, !- Handle
  Zone HVAC Equipment List 1,             !- Name
  {f28ae0b0-fd21-4813-831a-c939a7c661a5}, !- Thermal Zone
  ,                                       !- Load Distribution Scheme
  {c95408df-0d20-46dc-a226-11e55c62738e}, !- Zone Equipment 1
  1,                                      !- Zone Equipment Cooling Sequence 1
  1,                                      !- Zone Equipment Heating or No-Load Sequence 1
  {c493203f-44b2-48f6-ada7-54d5e49664c9}, !- Zone Equipment Sequential Cooling Fraction Schedule Name 1
  {530c9bb8-62ad-4664-89cf-52f98617d16b}; !- Zone Equipment Sequential Heating Fraction Schedule Name 1

OS:AdditionalProperties,
  {b5cc8576-2a33-4a8c-af20-f32a19e232c0}, !- Handle
  {f28ae0b0-fd21-4813-831a-c939a7c661a5}, !- Object Name
  ObjectType,                             !- Feature Name 1
  String,                                 !- Feature Data Type 1
  conditioned space;                      !- Feature Value 1

OS:Space,
  {8b8bf633-21bc-4bc0-a44f-94a3f4dff252}, !- Handle
  conditioned space 1,                    !- Name
  ,                                       !- Space Type Name
  ,                                       !- Default Construction Set Name
  ,                                       !- Default Schedule Set Name
  ,                                       !- Direction of Relative North {deg}
  ,                                       !- X Origin {m}
  ,                                       !- Y Origin {m}
  ,                                       !- Z Origin {m}
  ,                                       !- Building Story Name
  {f28ae0b0-fd21-4813-831a-c939a7c661a5}, !- Thermal Zone Name
  ,                                       !- Part of Total Floor Area
  ,                                       !- Design Specification Outdoor Air Object Name
  ,                                       !- Building Unit Name
  692.06373070848;                        !- Volume {m3}

OS:Schedule:Ruleset,
  {43c9fcc1-47ef-4ed2-96ca-1d7e0ded45d8}, !- Handle
  heating setpoint,                       !- Name
  {a75c9b73-e2d0-4555-8cd1-201edc213d8c}, !- Schedule Type Limits Name
  {280b8136-d669-4de0-b604-9694934dfffe}; !- Default Day Schedule Name

OS:Schedule:Day,
  {280b8136-d669-4de0-b604-9694934dfffe}, !- Handle
  heating setpoint default day,           !- Name
  {a75c9b73-e2d0-4555-8cd1-201edc213d8c}, !- Schedule Type Limits Name
  ,                                       !- Interpolate to Timestep
  24,                                     !- Hour 1
  0,                                      !- Minute 1
  0;                                      !- Value Until Time 1

OS:Schedule:Rule,
  {9e28c0d4-c93d-4139-8859-234fa275a513}, !- Handle
  heating setpoint allday rule,           !- Name
  {43c9fcc1-47ef-4ed2-96ca-1d7e0ded45d8}, !- Schedule Ruleset Name
  0,                                      !- Rule Order
  {7eb3c69d-196c-4f39-9ffb-df98b5ba7e4c}, !- Day Schedule Name
  Yes,                                    !- Apply Sunday
  Yes,                                    !- Apply Monday
  Yes,                                    !- Apply Tuesday
  Yes,                                    !- Apply Wednesday
  Yes,                                    !- Apply Thursday
  Yes,                                    !- Apply Friday
  Yes,                                    !- Apply Saturday
  DateRange,                              !- Date Specification Type
  1,                                      !- Start Month
  1,                                      !- Start Day
  12,                                     !- End Month
  31;                                     !- End Day

OS:Schedule:Day,
  {7eb3c69d-196c-4f39-9ffb-df98b5ba7e4c}, !- Handle
  heating setpoint day,                   !- Name
  {a75c9b73-e2d0-4555-8cd1-201edc213d8c}, !- Schedule Type Limits Name
  ,                                       !- Interpolate to Timestep
  24,                                     !- Hour 1
  0,                                      !- Minute 1
  20;                                     !- Value Until Time 1

OS:Schedule:Ruleset,
  {0b759476-af09-45df-9e42-b6ae986b539f}, !- Handle
  cooling setpoint,                       !- Name
  {a75c9b73-e2d0-4555-8cd1-201edc213d8c}, !- Schedule Type Limits Name
  {ce2c525a-c0a7-48ac-a436-8a49e5a986d2}; !- Default Day Schedule Name

OS:Schedule:Day,
  {ce2c525a-c0a7-48ac-a436-8a49e5a986d2}, !- Handle
  cooling setpoint default day,           !- Name
  {a75c9b73-e2d0-4555-8cd1-201edc213d8c}, !- Schedule Type Limits Name
  ,                                       !- Interpolate to Timestep
  24,                                     !- Hour 1
  0,                                      !- Minute 1
  0;                                      !- Value Until Time 1

OS:Schedule:Rule,
  {69d52999-8537-402d-a361-9f6151950c45}, !- Handle
  cooling setpoint allday rule,           !- Name
  {0b759476-af09-45df-9e42-b6ae986b539f}, !- Schedule Ruleset Name
  0,                                      !- Rule Order
  {4d6f7c9a-3476-4269-926d-840643479689}, !- Day Schedule Name
  Yes,                                    !- Apply Sunday
  Yes,                                    !- Apply Monday
  Yes,                                    !- Apply Tuesday
  Yes,                                    !- Apply Wednesday
  Yes,                                    !- Apply Thursday
  Yes,                                    !- Apply Friday
  Yes,                                    !- Apply Saturday
  DateRange,                              !- Date Specification Type
  1,                                      !- Start Month
  1,                                      !- Start Day
  12,                                     !- End Month
  31;                                     !- End Day

OS:Schedule:Day,
  {4d6f7c9a-3476-4269-926d-840643479689}, !- Handle
  cooling setpoint day,                   !- Name
  {a75c9b73-e2d0-4555-8cd1-201edc213d8c}, !- Schedule Type Limits Name
  ,                                       !- Interpolate to Timestep
  24,                                     !- Hour 1
  0,                                      !- Minute 1
  25.5555555555556;                       !- Value Until Time 1

OS:ThermostatSetpoint:DualSetpoint,
  {13b265e6-03ee-46a9-b94e-1c4c4afe2f83}, !- Handle
  conditioned space temperature setpoint, !- Name
  {43c9fcc1-47ef-4ed2-96ca-1d7e0ded45d8}, !- Heating Setpoint Temperature Schedule Name
  {0b759476-af09-45df-9e42-b6ae986b539f}, !- Cooling Setpoint Temperature Schedule Name
  0;                                      !- Temperature Difference Between Cutout And Setpoint {deltaC}

OS:ScheduleTypeLimits,
  {a75c9b73-e2d0-4555-8cd1-201edc213d8c}, !- Handle
  Temperature,                            !- Name
  ,                                       !- Lower Limit Value
  ,                                       !- Upper Limit Value
  Continuous,                             !- Numeric Type
  Temperature;                            !- Unit Type

OS:Surface,
  {9c96f57c-9f4c-4f64-b6f6-95d6ac63f287}, !- Handle
  Roof1,                                  !- Name
  RoofCeiling,                            !- Surface Type
  {0d3889e4-f44e-4d27-88a8-127deb3b7cfd}, !- Construction Name
  {e87bb191-ff97-4af4-adfa-a9825301d2cc}, !- Space Name
  Outdoors,                               !- Outside Boundary Condition
  ,                                       !- Outside Boundary Condition Object
  SunExposed,                             !- Sun Exposure
  WindExposed,                            !- Wind Exposure
  ,                                       !- View Factor to Ground
  ,                                       !- Number of Vertices
  -26.9347048849634, 58.0557891618865, 2.4384, !- X,Y,Z Vertex 1 {m}
  -26.9347048849634, 46.7895631136661, 8.0715130241102, !- X,Y,Z Vertex 2 {m}
  -14.3386812381136, 46.7895631136661, 8.0715130241102, !- X,Y,Z Vertex 3 {m}
  -14.3386812381136, 58.0557891618865, 2.4384; !- X,Y,Z Vertex 4 {m}

OS:AdditionalProperties,
  {8f9bd2f8-9ff6-4524-993f-e34abed12896}, !- Handle
  {9c96f57c-9f4c-4f64-b6f6-95d6ac63f287}, !- Object Name
  Length,                                 !- Feature Name 1
  Double,                                 !- Feature Data Type 1
  41.325536899113608,                     !- Feature Value 1
  Width,                                  !- Feature Name 2
  Double,                                 !- Feature Data Type 2
  41.325536899113601,                     !- Feature Value 2
  Azimuth,                                !- Feature Name 3
  Integer,                                !- Feature Data Type 3
  0,                                      !- Feature Value 3
  Tilt,                                   !- Feature Name 4
  Double,                                 !- Feature Data Type 4
  0.5,                                    !- Feature Value 4
  SurfaceType,                            !- Feature Name 5
  String,                                 !- Feature Data Type 5
  Roof;                                   !- Feature Value 5

OS:ThermalZone,
  {d0563edc-16ef-42e3-acc5-e4dc3a565184}, !- Handle
  attic - vented,                         !- Name
  1,                                      !- Multiplier
  ,                                       !- Ceiling Height {m}
  356.389957095237,                       !- Volume {m3}
  ,                                       !- Floor Area {m2}
  ,                                       !- Zone Inside Convection Algorithm
  ,                                       !- Zone Outside Convection Algorithm
  ,                                       !- Zone Conditioning Equipment List Name
  {cdee6ddd-b414-45cd-9c83-ca443e90413a}, !- Zone Air Inlet Port List
  {232899ed-2136-450a-aa50-4243ccbd41d2}, !- Zone Air Exhaust Port List
  {e6e040f9-3a20-46f3-8495-021f3e920ecf}, !- Zone Air Node Name
  {931d2c7a-8f5e-4c1b-a23e-e253eca8ed50}, !- Zone Return Air Port List
  ,                                       !- Primary Daylighting Control Name
  ,                                       !- Fraction of Zone Controlled by Primary Daylighting Control
  ,                                       !- Secondary Daylighting Control Name
  ,                                       !- Fraction of Zone Controlled by Secondary Daylighting Control
  ,                                       !- Illuminance Map Name
  ,                                       !- Group Rendering Name
  ,                                       !- Thermostat Name
  No;                                     !- Use Ideal Air Loads

OS:Node,
  {a6c5231f-0f5e-42e8-bc22-8a9ec2fb8207}, !- Handle
  Node 2,                                 !- Name
  {e6e040f9-3a20-46f3-8495-021f3e920ecf}, !- Inlet Port
  ;                                       !- Outlet Port

OS:Connection,
  {e6e040f9-3a20-46f3-8495-021f3e920ecf}, !- Handle
  {d0563edc-16ef-42e3-acc5-e4dc3a565184}, !- Source Object
  11,                                     !- Outlet Port
  {a6c5231f-0f5e-42e8-bc22-8a9ec2fb8207}, !- Target Object
  2;                                      !- Inlet Port

OS:PortList,
  {cdee6ddd-b414-45cd-9c83-ca443e90413a}, !- Handle
  {d0563edc-16ef-42e3-acc5-e4dc3a565184}; !- HVAC Component

OS:PortList,
  {232899ed-2136-450a-aa50-4243ccbd41d2}, !- Handle
  {d0563edc-16ef-42e3-acc5-e4dc3a565184}; !- HVAC Component

OS:PortList,
  {931d2c7a-8f5e-4c1b-a23e-e253eca8ed50}, !- Handle
  {d0563edc-16ef-42e3-acc5-e4dc3a565184}; !- HVAC Component

OS:Sizing:Zone,
  {87ec878f-2627-4361-b120-89a8a8b88251}, !- Handle
  {d0563edc-16ef-42e3-acc5-e4dc3a565184}, !- Zone or ZoneList Name
  SupplyAirTemperature,                   !- Zone Cooling Design Supply Air Temperature Input Method
  14,                                     !- Zone Cooling Design Supply Air Temperature {C}
  11.11,                                  !- Zone Cooling Design Supply Air Temperature Difference {deltaC}
  SupplyAirTemperature,                   !- Zone Heating Design Supply Air Temperature Input Method
  40,                                     !- Zone Heating Design Supply Air Temperature {C}
  11.11,                                  !- Zone Heating Design Supply Air Temperature Difference {deltaC}
  0.0085,                                 !- Zone Cooling Design Supply Air Humidity Ratio {kg-H2O/kg-air}
  0.008,                                  !- Zone Heating Design Supply Air Humidity Ratio {kg-H2O/kg-air}
  ,                                       !- Zone Heating Sizing Factor
  ,                                       !- Zone Cooling Sizing Factor
  DesignDay,                              !- Cooling Design Air Flow Method
  ,                                       !- Cooling Design Air Flow Rate {m3/s}
  ,                                       !- Cooling Minimum Air Flow per Zone Floor Area {m3/s-m2}
  ,                                       !- Cooling Minimum Air Flow {m3/s}
  ,                                       !- Cooling Minimum Air Flow Fraction
  DesignDay,                              !- Heating Design Air Flow Method
  ,                                       !- Heating Design Air Flow Rate {m3/s}
  ,                                       !- Heating Maximum Air Flow per Zone Floor Area {m3/s-m2}
  ,                                       !- Heating Maximum Air Flow {m3/s}
  ,                                       !- Heating Maximum Air Flow Fraction
  No,                                     !- Account for Dedicated Outdoor Air System
  NeutralSupplyAir,                       !- Dedicated Outdoor Air System Control Strategy
  autosize,                               !- Dedicated Outdoor Air Low Setpoint Temperature for Design {C}
  autosize,                               !- Dedicated Outdoor Air High Setpoint Temperature for Design {C}
  Sensible Load Only No Latent Load,      !- Zone Load Sizing Method
  HumidityRatioDifference,                !- Zone Latent Cooling Design Supply Air Humidity Ratio Input Method
  ,                                       !- Zone Dehumidification Design Supply Air Humidity Ratio {kgWater/kgDryAir}
  0.005,                                  !- Zone Cooling Design Supply Air Humidity Ratio Difference {kgWater/kgDryAir}
  HumidityRatioDifference,                !- Zone Latent Heating Design Supply Air Humidity Ratio Input Method
  ,                                       !- Zone Humidification Design Supply Air Humidity Ratio {kgWater/kgDryAir}
  0.005,                                  !- Zone Humidification Design Supply Air Humidity Ratio Difference {kgWater/kgDryAir}
  ,                                       !- Zone Humidistat Dehumidification Set Point Schedule Name
  ,                                       !- Zone Humidistat Humidification Set Point Schedule Name
  ,                                       !- Design Zone Air Distribution Effectiveness in Cooling Mode
  ,                                       !- Design Zone Air Distribution Effectiveness in Heating Mode
  ,                                       !- Design Zone Secondary Recirculation Fraction {dimensionless}
  ,                                       !- Design Minimum Zone Ventilation Efficiency {dimensionless}
  Coincident;                             !- Sizing Option

OS:ZoneHVAC:EquipmentList,
  {167127a6-5d02-4025-b8d3-ed8e5f260805}, !- Handle
  Zone HVAC Equipment List 2,             !- Name
  {d0563edc-16ef-42e3-acc5-e4dc3a565184}; !- Thermal Zone

OS:AdditionalProperties,
  {4a0afc9e-d8a0-4f79-9d77-55a671690b0b}, !- Handle
  {d0563edc-16ef-42e3-acc5-e4dc3a565184}, !- Object Name
  ObjectType,                             !- Feature Name 1
  String,                                 !- Feature Data Type 1
  attic - vented;                         !- Feature Value 1

OS:Space,
  {e87bb191-ff97-4af4-adfa-a9825301d2cc}, !- Handle
  attic - vented 1,                       !- Name
  ,                                       !- Space Type Name
  ,                                       !- Default Construction Set Name
  ,                                       !- Default Schedule Set Name
  ,                                       !- Direction of Relative North {deg}
  ,                                       !- X Origin {m}
  ,                                       !- Y Origin {m}
  ,                                       !- Z Origin {m}
  ,                                       !- Building Story Name
  {d0563edc-16ef-42e3-acc5-e4dc3a565184}, !- Thermal Zone Name
  ,                                       !- Part of Total Floor Area
  ,                                       !- Design Specification Outdoor Air Object Name
  ,                                       !- Building Unit Name
  356.389957095237;                       !- Volume {m3}

OS:Material,
  {ebfd63a5-f022-488d-b47f-6d49c4b70895}, !- Handle
  asphalt or fiberglass shingles,         !- Name
  Rough,                                  !- Roughness
  0.00635,                                !- Thickness {m}
  0.162714,                               !- Conductivity {W/m-K}
  1121.4,                                 !- Density {kg/m3}
  1465.45,                                !- Specific Heat {J/kg-K}
  0.9,                                    !- Thermal Absorptance
  0.85,                                   !- Solar Absorptance