
OS:Version,
  {43ad7151-ab3e-4b07-b9be-a7c2df1d7975}, !- Handle
  3.10.0;                                 !- Version Identifier

OS:SimulationControl,
  {855ed781-adee-4286-ab3c-7bdef903f3e7}, !- Handle
  ,                                       !- Do Zone Sizing Calculation
  ,                                       !- Do System Sizing Calculation
  ,                                       !- Do Plant Sizing Calculation
  No;                                     !- Run Simulation for Sizing Periods

OS:Timestep,
  {622f719b-ae8b-4d1a-86ca-4ae189ef6bf7}, !- Handle
  1;                                      !- Number of Timesteps per Hour

OS:ShadowCalculation,
  {b5614c4e-873d-4990-b1d7-0578ced6c449}, !- Handle
  PolygonClipping,                        !- Shading Calculation Method
  ,                                       !- Shading Calculation Update Frequency Method
  20,                                     !- Shading Calculation Update Frequency
  200,                                    !- Maximum Figures in Shadow Overlap Calculations
  ,                                       !- Polygon Clipping Algorithm
  512,                                    !- Pixel Counting Resolution
  ,                                       !- Sky Diffuse Modeling Algorithm
  No,                                     !- Output External Shading Calculation Results
  No,                                     !- Disable Self-Shading Within Shading Zone Groups
  No;                                     !- Disable Self-Shading From Shading Zone Groups to Other Zones

OS:SurfaceConvectionAlgorithm:Outside,
  {d605d32c-5d9d-480e-bae0-da2ca707f11f}, !- Handle
  DOE-2;                                  !- Algorithm

OS:SurfaceConvectionAlgorithm:Inside,
  {796d4e09-d2ed-4e0b-b48a-a780e0f806e5}, !- Handle
  TARP;                                   !- Algorithm

OS:ZoneCapacitanceMultiplier:ResearchSpecial,
  {ebb4128f-b9f8-4db1-8a81-6abb8df1ec5d}, !- Handle
  7,                                      !- Temperature Capacity Multiplier
  15,                                     !- Humidity Capacity Multiplier
  ;                                       !- Carbon Dioxide Capacity Multiplier

OS:ConvergenceLimits,
  {a73b98c3-7c4e-4bfe-99e4-1a4ebc3a19ff}, !- Handle
  0;                                      !- Minimum System Timestep {minutes}

OS:RunPeriod,
  {73066362-5d1f-44f0-81d0-8f2331a6332e}, !- Handle
  Run Period 1,                           !- Name
  1,                                      !- Begin Month
  1,                                      !- Begin Day of Month
  12,                                     !- End Month
  31,                                     !- End Day of Month
  ,                                       !- Use Weather File Holidays and Special Days
  ,                                       !- Use Weather File Daylight Saving Period
  ,                                       !- Apply Weekend Holiday Rule
  ,                                       !- Use Weather File Rain Indicators
  ,                                       !- Use Weather File Snow Indicators
  ;                                       !- Number of Times Runperiod to be Repeated

OS:PerformancePrecisionTradeoffs,
  {93849e30-75d3-4ec5-9bcb-f2f827ea5119}, !- Handle
  ,                                       !- Use Coil Direct Solutions
  CarrollMRT;                             !- Zone Radiant Exchange Algorithm

OS:WeatherFile,
  {56aec804-154e-4451-a11a-926bb603e88b}, !- Handle
  Buffalo Niagara Intl Ap,                !- City
  NY,                                     !- State Province Region
  USA,                                    !- Country
  TMY3,                                   !- Data Source
  725280,                                 !- WMO Number
  42.93,                                  !- Latitude {deg}
  -78.73,                                 !- Longitude {deg}
  -5,                                     !- Time Zone {hr}
  215,                                    !- Elevation {m}
  /Users/nmoore/github/urbanopt-example-geojson-project/example_project/weather/USA_NY_Buffalo-Greater.Buffalo.Intl.AP.725280_TMY3.epw, !- Url
  6B50E0FF,                               !- Checksum
  ,                                       !- Start Date Actual Year
  Sunday;                                 !- Start Day of Week

OS:YearDescription,
  {13b42e0c-4eb2-47f4-ab93-48ec4767d1dd}, !- Handle
  2007,                                   !- Calendar Year
  ,                                       !- Day of Week for Start Day
  ;                                       !- Is Leap Year

OS:Site,
  {037cfc7f-1c61-4b73-90f8-b678b681badb}, !- Handle
  Buffalo Niagara Intl Ap_NY,             !- Name
  42.93,                                  !- Latitude {deg}
  -78.73,                                 !- Longitude {deg}
  -5,                                     !- Time Zone {hr}
  215,                                    !- Elevation {m}
  Suburbs,                                !- Terrain
  Yes;                                    !- Keep Site Location Information

OS:RunPeriodControl:DaylightSavingTime,
  {ed5c5dad-4ef4-4e6f-9014-19e6cece7d3b}, !- Handle
  Mar 12,                                 !- Start Date
  Nov 5;                                  !- End Date

OS:Site:GroundTemperature:Shallow,
  {b8f40d53-98ed-4e03-9d5d-d3f60243122d}, !- Handle
  4.30207395723828,                       !- January Surface Ground Temperature {C}
  2.29327249652502,                       !- February Surface Ground Temperature {C}
  2.13240047156047,                       !- March Surface Ground Temperature {C}
  3.08567940719286,                       !- April Surface Ground Temperature {C}
  6.91256312497526,                       !- May Surface Ground Temperature {C}
  10.7216195949507,                       !- June Surface Ground Temperature {C}
  14.0238679822574,                       !- July Surface Ground Temperature {C}
  16.1157611184724,                       !- August Surface Ground Temperature {C}
  16.2934789303462,                       !- September Surface Ground Temperature {C}
  14.5920754632847,                       !- October Surface Ground Temperature {C}
  11.374036348653,                        !- November Surface Ground Temperature {C}
  7.68182621661674;                       !- December Surface Ground Temperature {C}

OS:ThermalZone,
  {7633967e-4b3c-4e0a-9b15-b058777f20c6}, !- Handle
  conditioned space,                      !- Name
  1,                                      !- Multiplier
  ,                                       !- Ceiling Height {m}
  692.06373070848,                        !- Volume {m3}
  ,                                       !- Floor Area {m2}
  ,                                       !- Zone Inside Convection Algorithm
  ,                                       !- Zone Outside Convection Algorithm
  ,                                       !- Zone Conditioning Equipment List Name
  {9abd6109-8cc8-4e83-8242-44392a6560ef}, !- Zone Air Inlet Port List
  {229842b0-7c7e-4fcd-b6ac-4d6fd6174d8b}, !- Zone Air Exhaust Port List
  {f1813df1-81cf-4123-9b5b-5dc3837c3487}, !- Zone Air Node Name
  {acfdadb9-103d-4533-ad66-7d184cd897e3}, !- Zone Return Air Port List
  ,                                       !- Primary Daylighting Control Name
  ,                                       !- Fraction of Zone Controlled by Primary Daylighting Control
  ,                                       !- Secondary Daylighting Control Name
  ,                                       !- Fraction of Zone Controlled by Secondary Daylighting Control
  ,                                       !- Illuminance Map Name
  ,                                       !- Group Rendering Name
  {3ec29849-535e-4bba-8255-8b959740dd59}, !- Thermostat Name
  No;                                     !- Use Ideal Air Loads

OS:Node,
  {4577ffde-83b6-41a0-994f-35e885a5a512}, !- Handle
  Node 1,                                 !- Name
  {f1813df1-81cf-4123-9b5b-5dc3837c3487}, !- Inlet Port
  ;                                       !- Outlet Port

OS:Connection,
  {f1813df1-81cf-4123-9b5b-5dc3837c3487}, !- Handle
  {7633967e-4b3c-4e0a-9b15-b058777f20c6}, !- Source Object
  11,                                     !- Outlet Port
  {4577ffde-83b6-41a0-994f-35e885a5a512}, !- Target Object
  2;                                      !- Inlet Port

OS:PortList,
  {9abd6109-8cc8-4e83-8242-44392a6560ef}, !- Handle
  {7633967e-4b3c-4e0a-9b15-b058777f20c6}, !- HVAC Component
  {4dbd0a30-c01c-4362-9cc1-8765b31cb2c6}; !- Port 1

OS:PortList,
  {229842b0-7c7e-4fcd-b6ac-4d6fd6174d8b}, !- Handle
  {7633967e-4b3c-4e0a-9b15-b058777f20c6}; !- HVAC Component

OS:PortList,
  {acfdadb9-103d-4533-ad66-7d184cd897e3}, !- Handle
  {7633967e-4b3c-4e0a-9b15-b058777f20c6}, !- HVAC Component
  {e0bb55c3-8304-4287-989c-b865d2a50ded}; !- Port 1

OS:Sizing:Zone,
  {07fb6f30-6719-4024-9e8b-f31eea2e80c1}, !- Handle
  {7633967e-4b3c-4e0a-9b15-b058777f20c6}, !- Zone or ZoneList Name
  SupplyAirTemperature,                   !- Zone Cooling Design Supply Air Temperature Input Method
  14,                                     !- Zone Cooling Design Supply Air Temperature {C}
  11.11,                                  !- Zone Cooling Design Supply Air Temperature Difference {deltaC}
  SupplyAirTemperature,                   !- Zone Heating Design Supply Air Temperature Input Method
  40,                                     !- Zone Heating Design Supply Air Temperature {C}
  11.11,                                  !- Zone Heating Design Supply Air Temperature Difference {deltaC}
  0.0085,                                 !- Zone Cooling Design Supply Air Humidity Ratio {kg-H2O/kg-air}
  0.008,                                  !- Zone Heating Design Supply Air Humidity Ratio {kg-H2O/kg-air}
  ,                                       !- Zone Heating Sizing Factor
  ,                                       !- Zone Cooling Sizing Factor
  DesignDay,                              !- Cooling Design Air Flow Method
  ,                                       !- Cooling Design Air Flow Rate {m3/s}
  ,                                       !- Cooling Minimum Air Flow per Zone Floor Area {m3/s-m2}
  ,                                       !- Cooling Minimum Air Flow {m3/s}
  ,                                       !- Cooling Minimum Air Flow Fraction
  DesignDay,                              !- Heating Design Air Flow Method
  ,                                       !- Heating Design Air Flow Rate {m3/s}
  ,                                       !- Heating Maximum Air Flow per Zone Floor Area {m3/s-m2}
  ,                                       !- Heating Maximum Air Flow {m3/s}
  ,                                       !- Heating Maximum Air Flow Fraction
  No,                                     !- Account for Dedicated Outdoor Air System
  NeutralSupplyAir,                       !- Dedicated Outdoor Air System Control Strategy
  autosize,                               !- Dedicated Outdoor Air Low Setpoint Temperature for Design {C}
  autosize,                               !- Dedicated Outdoor Air High Setpoint Temperature for Design {C}
  Sensible Load Only No Latent Load,      !- Zone Load Sizing Method
  HumidityRatioDifference,                !- Zone Latent Cooling Design Supply Air Humidity Ratio Input Method
  ,                                       !- Zone Dehumidification Design Supply Air Humidity Ratio {kgWater/kgDryAir}
  0.005,                                  !- Zone Cooling Design Supply Air Humidity Ratio Difference {kgWater/kgDryAir}
  HumidityRatioDifference,                !- Zone Latent Heating Design Supply Air Humidity Ratio Input Method
  ,                                       !- Zone Humidification Design Supply Air Humidity Ratio {kgWater/kgDryAir}
  0.005,                                  !- Zone Humidification Design Supply Air Humidity Ratio Difference {kgWater/kgDryAir}
  ,                                       !- Zone Humidistat Dehumidification Set Point Schedule Name
  ,                                       !- Zone Humidistat Humidification Set Point Schedule Name
  ,                                       !- Design Zone Air Distribution Effectiveness in Cooling Mode
  ,                                       !- Design Zone Air Distribution Effectiveness in Heating Mode
  ,                                       !- Design Zone Secondary Recirculation Fraction {dimensionless}
  ,                                       !- Design Minimum Zone Ventilation Efficiency {dimensionless}
  Coincident;                             !- Sizing Option

OS:ZoneHVAC:EquipmentList,
  {13bdd903-d0a8-4de4-b256-34abe4542405}, !- Handle
  Zone HVAC Equipment List 1,             !- Name
  {7633967e-4b3c-4e0a-9b15-b058777f20c6}, !- Thermal Zone
  ,                                       !- Load Distribution Scheme
  {fc340c6f-fb65-4107-b363-37234e7228e0}, !- Zone Equipment 1
  1,                                      !- Zone Equipment Cooling Sequence 1
  1,                                      !- Zone Equipment Heating or No-Load Sequence 1
  {1b9a9862-1e8a-4eb6-834d-06ab08dd7e46}, !- Zone Equipment Sequential Cooling Fraction Schedule Name 1
  {9b1ceb94-2953-40de-8dfc-cbd659ac817f}; !- Zone Equipment Sequential Heating Fraction Schedule Name 1

OS:AdditionalProperties,
  {58eb878f-1590-4d5a-b190-0265c462b8a1}, !- Handle
  {7633967e-4b3c-4e0a-9b15-b058777f20c6}, !- Object Name
  ObjectType,                             !- Feature Name 1
  String,                                 !- Feature Data Type 1
  conditioned space;                      !- Feature Value 1

OS:Space,
  {4cb479c8-5f2e-4a73-9e28-201d55999535}, !- Handle
  conditioned space 1,                    !- Name
  ,                                       !- Space Type Name
  ,                                       !- Default Construction Set Name
  ,                                       !- Default Schedule Set Name
  ,                                       !- Direction of Relative North {deg}
  ,                                       !- X Origin {m}
  ,                                       !- Y Origin {m}
  ,                                       !- Z Origin {m}
  ,                                       !- Building Story Name
  {7633967e-4b3c-4e0a-9b15-b058777f20c6}, !- Thermal Zone Name
  ,                                       !- Part of Total Floor Area
  ,                                       !- Design Specification Outdoor Air Object Name
  ,                                       !- Building Unit Name
  692.06373070848;                        !- Volume {m3}

OS:Schedule:Ruleset,
  {e71d4421-1786-488e-9ee6-609f68132fd0}, !- Handle
  heating setpoint,                       !- Name
  {41fd93bf-ec9e-44e9-b556-a6c71c0151ed}, !- Schedule Type Limits Name
  {3fe039b2-1d32-4a70-b5d0-9cfa9938c141}; !- Default Day Schedule Name

OS:Schedule:Day,
  {3fe039b2-1d32-4a70-b5d0-9cfa9938c141}, !- Handle
  heating setpoint default day,           !- Name
  {41fd93bf-ec9e-44e9-b556-a6c71c0151ed}, !- Schedule Type Limits Name
  ,                                       !- Interpolate to Timestep
  24,                                     !- Hour 1
  0,                                      !- Minute 1
  0;                                      !- Value Until Time 1

OS:Schedule:Rule,
  {12d975dd-4e90-441c-9acc-6cf4c9035645}, !- Handle
  heating setpoint allday rule,           !- Name
  {e71d4421-1786-488e-9ee6-609f68132fd0}, !- Schedule Ruleset Name
  0,                                      !- Rule Order
  {4f8f0d56-8903-441d-903b-30a2ca7b6efa}, !- Day Schedule Name
  Yes,                                    !- Apply Sunday
  Yes,                                    !- Apply Monday
  Yes,                                    !- Apply Tuesday
  Yes,                                    !- Apply Wednesday
  Yes,                                    !- Apply Thursday
  Yes,                                    !- Apply Friday
  Yes,                                    !- Apply Saturday
  DateRange,                              !- Date Specification Type
  1,                                      !- Start Month
  1,                                      !- Start Day
  12,                                     !- End Month
  31;                                     !- End Day

OS:Schedule:Day,
  {4f8f0d56-8903-441d-903b-30a2ca7b6efa}, !- Handle
  heating setpoint day,                   !- Name
  {41fd93bf-ec9e-44e9-b556-a6c71c0151ed}, !- Schedule Type Limits Name
  ,                                       !- Interpolate to Timestep
  24,                                     !- Hour 1
  0,                                      !- Minute 1
  20;                                     !- Value Until Time 1

OS:Schedule:Ruleset,
  {8ba218ab-1155-4465-b362-565ec35d6686}, !- Handle
  cooling setpoint,                       !- Name
  {41fd93bf-ec9e-44e9-b556-a6c71c0151ed}, !- Schedule Type Limits Name
  {93f21047-347f-4f87-8b78-4b7c0046c1fa}; !- Default Day Schedule Name

OS:Schedule:Day,
  {93f21047-347f-4f87-8b78-4b7c0046c1fa}, !- Handle
  cooling setpoint default day,           !- Name
  {41fd93bf-ec9e-44e9-b556-a6c71c0151ed}, !- Schedule Type Limits Name
  ,                                       !- Interpolate to Timestep
  24,                                     !- Hour 1
  0,                                      !- Minute 1
  0;                                      !- Value Until Time 1

OS:Schedule:Rule,
  {1e7a1c86-acac-40ff-ba4c-db169b5ab659}, !- Handle
  cooling setpoint allday rule,           !- Name
  {8ba218ab-1155-4465-b362-565ec35d6686}, !- Schedule Ruleset Name
  0,                                      !- Rule Order
  {4df4bb5a-f49e-44ba-bb09-1b755576598f}, !- Day Schedule Name
  Yes,                                    !- Apply Sunday
  Yes,                                    !- Apply Monday
  Yes,                                    !- Apply Tuesday
  Yes,                                    !- Apply Wednesday
  Yes,                                    !- Apply Thursday
  Yes,                                    !- Apply Friday
  Yes,                                    !- Apply Saturday
  DateRange,                              !- Date Specification Type
  1,                                      !- Start Month
  1,                                      !- Start Day
  12,                                     !- End Month
  31;                                     !- End Day

OS:Schedule:Day,
  {4df4bb5a-f49e-44ba-bb09-1b755576598f}, !- Handle
  cooling setpoint day,                   !- Name
  {41fd93bf-ec9e-44e9-b556-a6c71c0151ed}, !- Schedule Type Limits Name
  ,                                       !- Interpolate to Timestep
  24,                                     !- Hour 1
  0,                                      !- Minute 1
  25.5555555555556;                       !- Value Until Time 1

OS:ThermostatSetpoint:DualSetpoint,
  {3ec29849-535e-4bba-8255-8b959740dd59}, !- Handle
  conditioned space temperature setpoint, !- Name
  {e71d4421-1786-488e-9ee6-609f68132fd0}, !- Heating Setpoint Temperature Schedule Name
  {8ba218ab-1155-4465-b362-565ec35d6686}, !- Cooling Setpoint Temperature Schedule Name
  0;                                      !- Temperature Difference Between Cutout And Setpoint {deltaC}

OS:ScheduleTypeLimits,
  {41fd93bf-ec9e-44e9-b556-a6c71c0151ed}, !- Handle
  Temperature,                            !- Name
  ,                                       !- Lower Limit Value
  ,                                       !- Upper Limit Value
  Continuous,                             !- Numeric Type
  Temperature;                            !- Unit Type

OS:Surface,
  {a7423b19-89dc-4420-a969-27b8260de177}, !- Handle
  Roof1,                                  !- Name
  RoofCeiling,                            !- Surface Type
  {48d97c93-c128-4593-8cea-6e3fdb4faf33}, !- Construction Name
  {90ec8efc-a5e7-46f3-a14a-c294722e7f08}, !- Space Name
  Outdoors,                               !- Outside Boundary Condition
  ,                                       !- Outside Boundary Condition Object
  SunExposed,                             !- Sun Exposure
  WindExposed,                            !- Wind Exposure
  ,                                       !- View Factor to Ground
  ,                                       !- Number of Vertices
  -26.9347048849634, 58.0557891618865, 2.4384, !- X,Y,Z Vertex 1 {m}
  -26.9347048849634, 46.7895631136661, 8.0715130241102, !- X,Y,Z Vertex 2 {m}
  -14.3386812381136, 46.7895631136661, 8.0715130241102, !- X,Y,Z Vertex 3 {m}
  -14.3386812381136, 58.0557891618865, 2.4384; !- X,Y,Z Vertex 4 {m}

OS:AdditionalProperties,
  {2c30df0c-18b8-440a-bbd3-968e690ade79}, !- Handle
  {a7423b19-89dc-4420-a969-27b8260de177}, !- Object Name
  Length,                                 !- Feature Name 1
  Double,                                 !- Feature Data Type 1
  41.325536899113608,                     !- Feature Value 1
  Width,                                  !- Feature Name 2
  Double,                                 !- Feature Data Type 2
  41.325536899113601,                     !- Feature Value 2
  Azimuth,                                !- Feature Name 3
  Integer,                                !- Feature Data Type 3
  0,                                      !- Feature Value 3
  Tilt,                                   !- Feature Name 4
  Double,                                 !- Feature Data Type 4
  0.5,                                    !- Feature Value 4
  SurfaceType,                            !- Feature Name 5
  String,                                 !- Feature Data Type 5
  Roof;                                   !- Feature Value 5

OS:ThermalZone,
  {d2caf655-17b4-4171-b334-4e5953e1a2f2}, !- Handle
  attic - vented,                         !- Name
  1,                                      !- Multiplier
  ,                                       !- Ceiling Height {m}
  356.390921899745,                       !- Volume {m3}
  ,                                       !- Floor Area {m2}
  ,                                       !- Zone Inside Convection Algorithm
  ,                                       !- Zone Outside Convection Algorithm
  ,                                       !- Zone Conditioning Equipment List Name
  {03f263a1-71af-47c6-96a6-5a24e717c9eb}, !- Zone Air Inlet Port List
  {0d9872b1-8d4e-42f5-9e13-bd964dd17ffa}, !- Zone Air Exhaust Port List
  {c5f2e01b-9c37-41f3-b35c-66204345f007}, !- Zone Air Node Name
  {e17b5a60-1cf1-4171-8c90-bab0638614ca}, !- Zone Return Air Port List
  ,                                       !- Primary Daylighting Control Name
  ,                                       !- Fraction of Zone Controlled by Primary Daylighting Control
  ,                                       !- Secondary Daylighting Control Name
  ,                                       !- Fraction of Zone Controlled by Secondary Daylighting Control
  ,                                       !- Illuminance Map Name
  ,                                       !- Group Rendering Name
  ,                                       !- Thermostat Name
  No;                                     !- Use Ideal Air Loads

OS:Node,
  {60893329-083b-4eef-b33c-72c51090f778}, !- Handle
  Node 2,                                 !- Name
  {c5f2e01b-9c37-41f3-b35c-66204345f007}, !- Inlet Port
  ;                                       !- Outlet Port

OS:Connection,
  {c5f2e01b-9c37-41f3-b35c-66204345f007}, !- Handle
  {d2caf655-17b4-4171-b334-4e5953e1a2f2}, !- Source Object
  11,                                     !- Outlet Port
  {60893329-083b-4eef-b33c-72c51090f778}, !- Target Object
  2;                                      !- Inlet Port

OS:PortList,
  {03f263a1-71af-47c6-96a6-5a24e717c9eb}, !- Handle
  {d2caf655-17b4-4171-b334-4e5953e1a2f2}; !- HVAC Component

OS:PortList,
  {0d9872b1-8d4e-42f5-9e13-bd964dd17ffa}, !- Handle
  {d2caf655-17b4-4171-b334-4e5953e1a2f2}; !- HVAC Component

OS:PortList,
  {e17b5a60-1cf1-4171-8c90-bab0638614ca}, !- Handle
  {d2caf655-17b4-4171-b334-4e5953e1a2f2}; !- HVAC Component

OS:Sizing:Zone,
  {1b80b13d-cbd9-45d0-9254-ec04682a479a}, !- Handle
  {d2caf655-17b4-4171-b334-4e5953e1a2f2}, !- Zone or ZoneList Name
  SupplyAirTemperature,                   !- Zone Cooling Design Supply Air Temperature Input Method
  14,                                     !- Zone Cooling Design Supply Air Temperature {C}
  11.11,                                  !- Zone Cooling Design Supply Air Temperature Difference {deltaC}
  SupplyAirTemperature,                   !- Zone Heating Design Supply Air Temperature Input Method
  40,                                     !- Zone Heating Design Supply Air Temperature {C}
  11.11,                                  !- Zone Heating Design Supply Air Temperature Difference {deltaC}
  0.0085,                                 !- Zone Cooling Design Supply Air Humidity Ratio {kg-H2O/kg-air}
  0.008,                                  !- Zone Heating Design Supply Air Humidity Ratio {kg-H2O/kg-air}
  ,                                       !- Zone Heating Sizing Factor
  ,                                       !- Zone Cooling Sizing Factor
  DesignDay,                              !- Cooling Design Air Flow Method
  ,                                       !- Cooling Design Air Flow Rate {m3/s}
  ,                                       !- Cooling Minimum Air Flow per Zone Floor Area {m3/s-m2}
  ,                                       !- Cooling Minimum Air Flow {m3/s}
  ,                                       !- Cooling Minimum Air Flow Fraction
  DesignDay,                              !- Heating Design Air Flow Method
  ,                                       !- Heating Design Air Flow Rate {m3/s}
  ,                                       !- Heating Maximum Air Flow per Zone Floor Area {m3/s-m2}
  ,                                       !- Heating Maximum Air Flow {m3/s}
  ,                                       !- Heating Maximum Air Flow Fraction
  No,                                     !- Account for Dedicated Outdoor Air System
  NeutralSupplyAir,                       !- Dedicated Outdoor Air System Control Strategy
  autosize,                               !- Dedicated Outdoor Air Low Setpoint Temperature for Design {C}
  autosize,                               !- Dedicated Outdoor Air High Setpoint Temperature for Design {C}
  Sensible Load Only No Latent Load,      !- Zone Load Sizing Method
  HumidityRatioDifference,                !- Zone Latent Cooling Design Supply Air Humidity Ratio Input Method
  ,                                       !- Zone Dehumidification Design Supply Air Humidity Ratio {kgWater/kgDryAir}
  0.005,                                  !- Zone Cooling Design Supply Air Humidity Ratio Difference {kgWater/kgDryAir}
  HumidityRatioDifference,                !- Zone Latent Heating Design Supply Air Humidity Ratio Input Method
  ,                                       !- Zone Humidification Design Supply Air Humidity Ratio {kgWater/kgDryAir}
  0.005,                                  !- Zone Humidification Design Supply Air Humidity Ratio Difference {kgWater/kgDryAir}
  ,                                       !- Zone Humidistat Dehumidification Set Point Schedule Name
  ,                                       !- Zone Humidistat Humidification Set Point Schedule Name
  ,                                       !- Design Zone Air Distribution Effectiveness in Cooling Mode
  ,                                       !- Design Zone Air Distribution Effectiveness in Heating Mode
  ,                                       !- Design Zone Secondary Recirculation Fraction {dimensionless}
  ,                                       !- Design Minimum Zone Ventilation Efficiency {dimensionless}
  Coincident;                             !- Sizing Option

OS:ZoneHVAC:EquipmentList,
  {023d9a8a-be52-4a61-8058-b687008ad6a4}, !- Handle
  Zone HVAC Equipment List 2,             !- Name
  {d2caf655-17b4-4171-b334-4e5953e1a2f2}; !- Thermal Zone

OS:AdditionalProperties,
  {6ce40af7-953c-4a34-9f4d-ffb638f422bc}, !- Handle
  {d2caf655-17b4-4171-b334-4e5953e1a2f2}, !- Object Name
  ObjectType,                             !- Feature Name 1
  String,                                 !- Feature Data Type 1
  attic - vented;                         !- Feature Value 1

OS:Space,
  {90ec8efc-a5e7-46f3-a14a-c294722e7f08}, !- Handle
  attic - vented 1,                       !- Name
  ,                                       !- Space Type Name
  ,                                       !- Default Construction Set Name
  ,                                       !- Default Schedule Set Name
  ,                                       !- Direction of Relative North {deg}
  ,                                       !- X Origin {m}
  ,                                       !- Y Origin {m}
  ,                                       !- Z Origin {m}
  ,                                       !- Building Story Name
  {d2caf655-17b4-4171-b334-4e5953e1a2f2}, !- Thermal Zone Name
  ,                                       !- Part of Total Floor Area
  ,                                       !- Design Specification Outdoor Air Object Name
  ,                                       !- Building Unit Name
  356.390921899745;                       !- Volume {m3}

OS:Material,
  {9edb8bbe-e481-40dc-bf91-d987b3d0013d}, !- Handle
  asphalt or fiberglass shingles,         !- Name
  Rough,                                  !- Roughness
  0.00635,                                !- Thickness {m}
  0.162714,                               !- Conductivity {W/m-K}
  1121.4,                                 !- Density {kg/m3}
  1465.45,                                !- Specific Heat {J/kg-K}
  0.9,                                    !- Thermal Absorptance
  0.85,                                   !- Solar Absorptance