
OS:Version,
  {c742eb5f-b288-48af-a30e-fe00680e8d89}, !- Handle
  3.9.0;                                  !- Version Identifier

OS:SimulationControl,
  {0ea3e056-0027-4352-a48f-9be6440cccd2}, !- Handle
  ,                                       !- Do Zone Sizing Calculation
  ,                                       !- Do System Sizing Calculation
  ,                                       !- Do Plant Sizing Calculation
  No;                                     !- Run Simulation for Sizing Periods

OS:Timestep,
  {8d1f4e4d-e073-4894-8333-5dca188ad0ab}, !- Handle
  1;                                      !- Number of Timesteps per Hour

OS:ShadowCalculation,
  {0df3becd-6f1e-4feb-82ba-e2d12d518108}, !- Handle
  PolygonClipping,                        !- Shading Calculation Method
  ,                                       !- Shading Calculation Update Frequency Method
  20,                                     !- Shading Calculation Update Frequency
  200,                                    !- Maximum Figures in Shadow Overlap Calculations
  ,                                       !- Polygon Clipping Algorithm
  512,                                    !- Pixel Counting Resolution
  ,                                       !- Sky Diffuse Modeling Algorithm
  No,                                     !- Output External Shading Calculation Results
  No,                                     !- Disable Self-Shading Within Shading Zone Groups
  No;                                     !- Disable Self-Shading From Shading Zone Groups to Other Zones

OS:SurfaceConvectionAlgorithm:Outside,
  {a79fc086-4828-4b4c-b63b-64b3ed134c30}, !- Handle
  DOE-2;                                  !- Algorithm

OS:SurfaceConvectionAlgorithm:Inside,
  {c6fc9f04-c56e-4e58-b94d-4433c9f64d88}, !- Handle
  TARP;                                   !- Algorithm

OS:ZoneCapacitanceMultiplier:ResearchSpecial,
  {53b62ffb-5f5f-4194-9cd0-aeac3fae87eb}, !- Handle
  7,                                      !- Temperature Capacity Multiplier
  15,                                     !- Humidity Capacity Multiplier
  ;                                       !- Carbon Dioxide Capacity Multiplier

OS:ConvergenceLimits,
  {6d3ed1a3-b6b1-4475-95e3-df38c0841f59}, !- Handle
  0;                                      !- Minimum System Timestep {minutes}

OS:RunPeriod,
  {4b8817e0-4b9b-4775-a78a-043c32b23888}, !- Handle
  Run Period 1,                           !- Name
  1,                                      !- Begin Month
  1,                                      !- Begin Day of Month
  12,                                     !- End Month
  31,                                     !- End Day of Month
  ,                                       !- Use Weather File Holidays and Special Days
  ,                                       !- Use Weather File Daylight Saving Period
  ,                                       !- Apply Weekend Holiday Rule
  ,                                       !- Use Weather File Rain Indicators
  ,                                       !- Use Weather File Snow Indicators
  ;                                       !- Number of Times Runperiod to be Repeated

OS:PerformancePrecisionTradeoffs,
  {b76c7e1e-8fa1-4cb3-84f7-b4c2c0af6db0}, !- Handle
  ,                                       !- Use Coil Direct Solutions
  CarrollMRT;                             !- Zone Radiant Exchange Algorithm

OS:WeatherFile,
  {7732c909-21c0-4c40-979c-521b84c13274}, !- Handle
  Buffalo Niagara Intl Ap,                !- City
  NY,                                     !- State Province Region
  USA,                                    !- Country
  TMY3,                                   !- Data Source
  725280,                                 !- WMO Number
  42.93,                                  !- Latitude {deg}
  -78.73,                                 !- Longitude {deg}
  -5,                                     !- Time Zone {hr}
  215,                                    !- Elevation {m}
  /Users/nmoore/github/urbanopt-example-geojson-project/example_project/weather/USA_NY_Buffalo-Greater.Buffalo.Intl.AP.725280_TMY3.epw, !- Url
  6B50E0FF,                               !- Checksum
  ,                                       !- Start Date Actual Year
  Sunday;                                 !- Start Day of Week

OS:YearDescription,
  {271c4e98-2c15-4c92-a6f1-0ed010db6e57}, !- Handle
  2007,                                   !- Calendar Year
  ,                                       !- Day of Week for Start Day
  ;                                       !- Is Leap Year

OS:Site,
  {77b9d723-4b79-4d93-b419-48a1e49ef218}, !- Handle
  Buffalo Niagara Intl Ap_NY,             !- Name
  42.93,                                  !- Latitude {deg}
  -78.73,                                 !- Longitude {deg}
  -5,                                     !- Time Zone {hr}
  215,                                    !- Elevation {m}
  Suburbs,                                !- Terrain
  Yes;                                    !- Keep Site Location Information

OS:RunPeriodControl:DaylightSavingTime,
  {91428ccb-ab77-4aa3-a32e-f1854532ebf5}, !- Handle
  Mar 12,                                 !- Start Date
  Nov 5;                                  !- End Date

OS:Site:GroundTemperature:Shallow,
  {fee14aea-3c79-4c7a-8618-ead43ec62ceb}, !- Handle
  4.30207395723828,                       !- January Surface Ground Temperature {C}
  2.29327249652502,                       !- February Surface Ground Temperature {C}
  2.13240047156047,                       !- March Surface Ground Temperature {C}
  3.08567940719286,                       !- April Surface Ground Temperature {C}
  6.91256312497526,                       !- May Surface Ground Temperature {C}
  10.7216195949507,                       !- June Surface Ground Temperature {C}
  14.0238679822574,                       !- July Surface Ground Temperature {C}
  16.1157611184724,                       !- August Surface Ground Temperature {C}
  16.2934789303462,                       !- September Surface Ground Temperature {C}
  14.5920754632847,                       !- October Surface Ground Temperature {C}
  11.374036348653,                        !- November Surface Ground Temperature {C}
  7.68182621661674;                       !- December Surface Ground Temperature {C}

OS:ThermalZone,
  {b27881f4-3a03-4526-a5e5-c9d82eacdf15}, !- Handle
  conditioned space,                      !- Name
  1,                                      !- Multiplier
  ,                                       !- Ceiling Height {m}
  692.06373070848,                        !- Volume {m3}
  ,                                       !- Floor Area {m2}
  ,                                       !- Zone Inside Convection Algorithm
  ,                                       !- Zone Outside Convection Algorithm
  ,                                       !- Zone Conditioning Equipment List Name
  {be48c318-8d66-4ba4-992c-eae486714fe0}, !- Zone Air Inlet Port List
  {46c086ba-9ca1-4d18-8829-8ff6876d687b}, !- Zone Air Exhaust Port List
  {d13a41ba-65cb-4582-9f1a-cee7a2e1ed08}, !- Zone Air Node Name
  {bf59d4f1-60fc-4d97-84a2-546b6e809550}, !- Zone Return Air Port List
  ,                                       !- Primary Daylighting Control Name
  ,                                       !- Fraction of Zone Controlled by Primary Daylighting Control
  ,                                       !- Secondary Daylighting Control Name
  ,                                       !- Fraction of Zone Controlled by Secondary Daylighting Control
  ,                                       !- Illuminance Map Name
  ,                                       !- Group Rendering Name
  {1e80b45e-291a-46da-8a5c-0dd409543460}, !- Thermostat Name
  No;                                     !- Use Ideal Air Loads

OS:Node,
  {d81e44b2-237c-4c41-ab59-534853f17b93}, !- Handle
  Node 1,                                 !- Name
  {d13a41ba-65cb-4582-9f1a-cee7a2e1ed08}, !- Inlet Port
  ;                                       !- Outlet Port

OS:Connection,
  {d13a41ba-65cb-4582-9f1a-cee7a2e1ed08}, !- Handle
  {b27881f4-3a03-4526-a5e5-c9d82eacdf15}, !- Source Object
  11,                                     !- Outlet Port
  {d81e44b2-237c-4c41-ab59-534853f17b93}, !- Target Object
  2;                                      !- Inlet Port

OS:PortList,
  {be48c318-8d66-4ba4-992c-eae486714fe0}, !- Handle
  {b27881f4-3a03-4526-a5e5-c9d82eacdf15}, !- HVAC Component
  {50967d89-6af1-486a-a322-3d9f993f41c8}; !- Port 1

OS:PortList,
  {46c086ba-9ca1-4d18-8829-8ff6876d687b}, !- Handle
  {b27881f4-3a03-4526-a5e5-c9d82eacdf15}; !- HVAC Component

OS:PortList,
  {bf59d4f1-60fc-4d97-84a2-546b6e809550}, !- Handle
  {b27881f4-3a03-4526-a5e5-c9d82eacdf15}, !- HVAC Component
  {b242c48a-39dc-4228-802c-ba80d8cad2d6}; !- Port 1

OS:Sizing:Zone,
  {a344ce54-ce0f-43c5-bfb9-6f012f69d42d}, !- Handle
  {b27881f4-3a03-4526-a5e5-c9d82eacdf15}, !- Zone or ZoneList Name
  SupplyAirTemperature,                   !- Zone Cooling Design Supply Air Temperature Input Method
  14,                                     !- Zone Cooling Design Supply Air Temperature {C}
  11.11,                                  !- Zone Cooling Design Supply Air Temperature Difference {deltaC}
  SupplyAirTemperature,                   !- Zone Heating Design Supply Air Temperature Input Method
  40,                                     !- Zone Heating Design Supply Air Temperature {C}
  11.11,                                  !- Zone Heating Design Supply Air Temperature Difference {deltaC}
  0.0085,                                 !- Zone Cooling Design Supply Air Humidity Ratio {kg-H2O/kg-air}
  0.008,                                  !- Zone Heating Design Supply Air Humidity Ratio {kg-H2O/kg-air}
  ,                                       !- Zone Heating Sizing Factor
  ,                                       !- Zone Cooling Sizing Factor
  DesignDay,                              !- Cooling Design Air Flow Method
  ,                                       !- Cooling Design Air Flow Rate {m3/s}
  ,                                       !- Cooling Minimum Air Flow per Zone Floor Area {m3/s-m2}
  ,                                       !- Cooling Minimum Air Flow {m3/s}
  ,                                       !- Cooling Minimum Air Flow Fraction
  DesignDay,                              !- Heating Design Air Flow Method
  ,                                       !- Heating Design Air Flow Rate {m3/s}
  ,                                       !- Heating Maximum Air Flow per Zone Floor Area {m3/s-m2}
  ,                                       !- Heating Maximum Air Flow {m3/s}
  ,                                       !- Heating Maximum Air Flow Fraction
  No,                                     !- Account for Dedicated Outdoor Air System
  NeutralSupplyAir,                       !- Dedicated Outdoor Air System Control Strategy
  autosize,                               !- Dedicated Outdoor Air Low Setpoint Temperature for Design {C}
  autosize,                               !- Dedicated Outdoor Air High Setpoint Temperature for Design {C}
  Sensible Load Only No Latent Load,      !- Zone Load Sizing Method
  HumidityRatioDifference,                !- Zone Latent Cooling Design Supply Air Humidity Ratio Input Method
  ,                                       !- Zone Dehumidification Design Supply Air Humidity Ratio {kgWater/kgDryAir}
  0.005,                                  !- Zone Cooling Design Supply Air Humidity Ratio Difference {kgWater/kgDryAir}
  HumidityRatioDifference,                !- Zone Latent Heating Design Supply Air Humidity Ratio Input Method
  ,                                       !- Zone Humidification Design Supply Air Humidity Ratio {kgWater/kgDryAir}
  0.005,                                  !- Zone Humidification Design Supply Air Humidity Ratio Difference {kgWater/kgDryAir}
  ,                                       !- Zone Humidistat Dehumidification Set Point Schedule Name
  ,                                       !- Zone Humidistat Humidification Set Point Schedule Name
  ,                                       !- Design Zone Air Distribution Effectiveness in Cooling Mode
  ,                                       !- Design Zone Air Distribution Effectiveness in Heating Mode
  ,                                       !- Design Zone Secondary Recirculation Fraction {dimensionless}
  ,                                       !- Design Minimum Zone Ventilation Efficiency {dimensionless}
  Coincident;                             !- Sizing Option

OS:ZoneHVAC:EquipmentList,
  {9ca11d5e-754e-41c4-9665-cd2046e3fb90}, !- Handle
  Zone HVAC Equipment List 1,             !- Name
  {b27881f4-3a03-4526-a5e5-c9d82eacdf15}, !- Thermal Zone
  ,                                       !- Load Distribution Scheme
  {86670739-ad22-44eb-8879-c6090f19dc78}, !- Zone Equipment 1
  1,                                      !- Zone Equipment Cooling Sequence 1
  1,                                      !- Zone Equipment Heating or No-Load Sequence 1
  {0d1cf7ed-ae4c-42bb-ad77-2074d8d8a7e5}, !- Zone Equipment Sequential Cooling Fraction Schedule Name 1
  {2a9987b6-1aea-439a-a2f6-9d93d408a153}; !- Zone Equipment Sequential Heating Fraction Schedule Name 1

OS:AdditionalProperties,
  {97d7c931-8dbd-4797-902b-1d5905fb7ddb}, !- Handle
  {b27881f4-3a03-4526-a5e5-c9d82eacdf15}, !- Object Name
  ObjectType,                             !- Feature Name 1
  String,                                 !- Feature Data Type 1
  conditioned space;                      !- Feature Value 1

OS:Space,
  {792d6244-7f76-49b3-80ec-67af2e10e704}, !- Handle
  conditioned space 1,                    !- Name
  ,                                       !- Space Type Name
  ,                                       !- Default Construction Set Name
  ,                                       !- Default Schedule Set Name
  ,                                       !- Direction of Relative North {deg}
  ,                                       !- X Origin {m}
  ,                                       !- Y Origin {m}
  ,                                       !- Z Origin {m}
  ,                                       !- Building Story Name
  {b27881f4-3a03-4526-a5e5-c9d82eacdf15}, !- Thermal Zone Name
  ,                                       !- Part of Total Floor Area
  ,                                       !- Design Specification Outdoor Air Object Name
  ,                                       !- Building Unit Name
  692.06373070848;                        !- Volume {m3}

OS:Schedule:Ruleset,
  {a96f04bc-3084-45d5-9c09-3b8751c75137}, !- Handle
  heating setpoint,                       !- Name
  {2c0802b1-f87d-49df-b315-6c3be6c94501}, !- Schedule Type Limits Name
  {54037663-530d-45d2-ac67-db0146e1abb4}; !- Default Day Schedule Name

OS:Schedule:Day,
  {54037663-530d-45d2-ac67-db0146e1abb4}, !- Handle
  heating setpoint default day,           !- Name
  {2c0802b1-f87d-49df-b315-6c3be6c94501}, !- Schedule Type Limits Name
  ,                                       !- Interpolate to Timestep
  24,                                     !- Hour 1
  0,                                      !- Minute 1
  0;                                      !- Value Until Time 1

OS:Schedule:Rule,
  {05198eda-eaa2-4b3b-ace3-8092baed992a}, !- Handle
  heating setpoint allday rule,           !- Name
  {a96f04bc-3084-45d5-9c09-3b8751c75137}, !- Schedule Ruleset Name
  0,                                      !- Rule Order
  {77f0853e-119e-446f-9b7f-1e6122597028}, !- Day Schedule Name
  Yes,                                    !- Apply Sunday
  Yes,                                    !- Apply Monday
  Yes,                                    !- Apply Tuesday
  Yes,                                    !- Apply Wednesday
  Yes,                                    !- Apply Thursday
  Yes,                                    !- Apply Friday
  Yes,                                    !- Apply Saturday
  DateRange,                              !- Date Specification Type
  1,                                      !- Start Month
  1,                                      !- Start Day
  12,                                     !- End Month
  31;                                     !- End Day

OS:Schedule:Day,
  {77f0853e-119e-446f-9b7f-1e6122597028}, !- Handle
  heating setpoint day,                   !- Name
  {2c0802b1-f87d-49df-b315-6c3be6c94501}, !- Schedule Type Limits Name
  ,                                       !- Interpolate to Timestep
  24,                                     !- Hour 1
  0,                                      !- Minute 1
  20;                                     !- Value Until Time 1

OS:Schedule:Ruleset,
  {28c398f3-eb0a-43b0-a2bd-63b662767cf9}, !- Handle
  cooling setpoint,                       !- Name
  {2c0802b1-f87d-49df-b315-6c3be6c94501}, !- Schedule Type Limits Name
  {46a173a9-6f6b-464f-a9b6-11cfe57b7e3f}; !- Default Day Schedule Name

OS:Schedule:Day,
  {46a173a9-6f6b-464f-a9b6-11cfe57b7e3f}, !- Handle
  cooling setpoint default day,           !- Name
  {2c0802b1-f87d-49df-b315-6c3be6c94501}, !- Schedule Type Limits Name
  ,                                       !- Interpolate to Timestep
  24,                                     !- Hour 1
  0,                                      !- Minute 1
  0;                                      !- Value Until Time 1

OS:Schedule:Rule,
  {531226d5-437f-4fb9-8a43-4a64250cd410}, !- Handle
  cooling setpoint allday rule,           !- Name
  {28c398f3-eb0a-43b0-a2bd-63b662767cf9}, !- Schedule Ruleset Name
  0,                                      !- Rule Order
  {10d1a5cb-577b-468c-b2d7-996fa6c0d076}, !- Day Schedule Name
  Yes,                                    !- Apply Sunday
  Yes,                                    !- Apply Monday
  Yes,                                    !- Apply Tuesday
  Yes,                                    !- Apply Wednesday
  Yes,                                    !- Apply Thursday
  Yes,                                    !- Apply Friday
  Yes,                                    !- Apply Saturday
  DateRange,                              !- Date Specification Type
  1,                                      !- Start Month
  1,                                      !- Start Day
  12,                                     !- End Month
  31;                                     !- End Day

OS:Schedule:Day,
  {10d1a5cb-577b-468c-b2d7-996fa6c0d076}, !- Handle
  cooling setpoint day,                   !- Name
  {2c0802b1-f87d-49df-b315-6c3be6c94501}, !- Schedule Type Limits Name
  ,                                       !- Interpolate to Timestep
  24,                                     !- Hour 1
  0,                                      !- Minute 1
  25.5555555555556;                       !- Value Until Time 1

OS:ThermostatSetpoint:DualSetpoint,
  {1e80b45e-291a-46da-8a5c-0dd409543460}, !- Handle
  conditioned space temperature setpoint, !- Name
  {a96f04bc-3084-45d5-9c09-3b8751c75137}, !- Heating Setpoint Temperature Schedule Name
  {28c398f3-eb0a-43b0-a2bd-63b662767cf9}, !- Cooling Setpoint Temperature Schedule Name
  0;                                      !- Temperature Difference Between Cutout And Setpoint {deltaC}

OS:ScheduleTypeLimits,
  {2c0802b1-f87d-49df-b315-6c3be6c94501}, !- Handle
  Temperature,                            !- Name
  ,                                       !- Lower Limit Value
  ,                                       !- Upper Limit Value
  Continuous,                             !- Numeric Type
  Temperature;                            !- Unit Type

OS:Surface,
  {a9a55752-02fe-4738-a2f9-e5b758d9c45c}, !- Handle
  Roof1,                                  !- Name
  RoofCeiling,                            !- Surface Type
  {7a664e53-31e6-48f3-aba5-e3cd8ee3d5cb}, !- Construction Name
  {2a762dc6-4db4-4b1d-8249-b134a613dc48}, !- Space Name
  Outdoors,                               !- Outside Boundary Condition
  ,                                       !- Outside Boundary Condition Object
  SunExposed,                             !- Sun Exposure
  WindExposed,                            !- Wind Exposure
  ,                                       !- View Factor to Ground
  ,                                       !- Number of Vertices
  -26.9347048849634, 58.0557891618865, 2.4384, !- X,Y,Z Vertex 1 {m}
  -26.9347048849634, 46.7895631136661, 8.0715130241102, !- X,Y,Z Vertex 2 {m}
  -14.3386812381136, 46.7895631136661, 8.0715130241102, !- X,Y,Z Vertex 3 {m}
  -14.3386812381136, 58.0557891618865, 2.4384; !- X,Y,Z Vertex 4 {m}

OS:AdditionalProperties,
  {0a2c7f05-be3e-4c85-a4e2-0e1e73569215}, !- Handle
  {a9a55752-02fe-4738-a2f9-e5b758d9c45c}, !- Object Name
  Length,                                 !- Feature Name 1
  Double,                                 !- Feature Data Type 1
  41.325536899113608,                     !- Feature Value 1
  Width,                                  !- Feature Name 2
  Double,                                 !- Feature Data Type 2
  41.325536899113601,                     !- Feature Value 2
  Azimuth,                                !- Feature Name 3
  Integer,                                !- Feature Data Type 3
  0,                                      !- Feature Value 3
  Tilt,                                   !- Feature Name 4
  Double,                                 !- Feature Data Type 4
  0.5,                                    !- Feature Value 4
  SurfaceType,                            !- Feature Name 5
  String,                                 !- Feature Data Type 5
  Roof;                                   !- Feature Value 5

OS:ThermalZone,
  {d92fde86-64bc-4029-a7b6-87632200ec1e}, !- Handle
  attic - vented,                         !- Name
  1,                                      !- Multiplier
  ,                                       !- Ceiling Height {m}
  356.389957095237,                       !- Volume {m3}
  ,                                       !- Floor Area {m2}
  ,                                       !- Zone Inside Convection Algorithm
  ,                                       !- Zone Outside Convection Algorithm
  ,                                       !- Zone Conditioning Equipment List Name
  {f43596af-afdb-403f-a4de-ba1962271f42}, !- Zone Air Inlet Port List
  {f89004ec-855a-4375-8981-5edd80bc397e}, !- Zone Air Exhaust Port List
  {54306e65-ec83-4003-aef6-f44c6f88c4b2}, !- Zone Air Node Name
  {1fc9928d-60fe-44d8-bc62-967c0b8fe023}, !- Zone Return Air Port List
  ,                                       !- Primary Daylighting Control Name
  ,                                       !- Fraction of Zone Controlled by Primary Daylighting Control
  ,                                       !- Secondary Daylighting Control Name
  ,                                       !- Fraction of Zone Controlled by Secondary Daylighting Control
  ,                                       !- Illuminance Map Name
  ,                                       !- Group Rendering Name
  ,                                       !- Thermostat Name
  No;                                     !- Use Ideal Air Loads

OS:Node,
  {064e16c5-58cd-49b7-8255-38984d33ca80}, !- Handle
  Node 2,                                 !- Name
  {54306e65-ec83-4003-aef6-f44c6f88c4b2}, !- Inlet Port
  ;                                       !- Outlet Port

OS:Connection,
  {54306e65-ec83-4003-aef6-f44c6f88c4b2}, !- Handle
  {d92fde86-64bc-4029-a7b6-87632200ec1e}, !- Source Object
  11,                                     !- Outlet Port
  {064e16c5-58cd-49b7-8255-38984d33ca80}, !- Target Object
  2;                                      !- Inlet Port

OS:PortList,
  {f43596af-afdb-403f-a4de-ba1962271f42}, !- Handle
  {d92fde86-64bc-4029-a7b6-87632200ec1e}; !- HVAC Component

OS:PortList,
  {f89004ec-855a-4375-8981-5edd80bc397e}, !- Handle
  {d92fde86-64bc-4029-a7b6-87632200ec1e}; !- HVAC Component

OS:PortList,
  {1fc9928d-60fe-44d8-bc62-967c0b8fe023}, !- Handle
  {d92fde86-64bc-4029-a7b6-87632200ec1e}; !- HVAC Component

OS:Sizing:Zone,
  {fab39d4e-98c0-4b1d-ac98-01992d167e9b}, !- Handle
  {d92fde86-64bc-4029-a7b6-87632200ec1e}, !- Zone or ZoneList Name
  SupplyAirTemperature,                   !- Zone Cooling Design Supply Air Temperature Input Method
  14,                                     !- Zone Cooling Design Supply Air Temperature {C}
  11.11,                                  !- Zone Cooling Design Supply Air Temperature Difference {deltaC}
  SupplyAirTemperature,                   !- Zone Heating Design Supply Air Temperature Input Method
  40,                                     !- Zone Heating Design Supply Air Temperature {C}
  11.11,                                  !- Zone Heating Design Supply Air Temperature Difference {deltaC}
  0.0085,                                 !- Zone Cooling Design Supply Air Humidity Ratio {kg-H2O/kg-air}
  0.008,                                  !- Zone Heating Design Supply Air Humidity Ratio {kg-H2O/kg-air}
  ,                                       !- Zone Heating Sizing Factor
  ,                                       !- Zone Cooling Sizing Factor
  DesignDay,                              !- Cooling Design Air Flow Method
  ,                                       !- Cooling Design Air Flow Rate {m3/s}
  ,                                       !- Cooling Minimum Air Flow per Zone Floor Area {m3/s-m2}
  ,                                       !- Cooling Minimum Air Flow {m3/s}
  ,                                       !- Cooling Minimum Air Flow Fraction
  DesignDay,                              !- Heating Design Air Flow Method
  ,                                       !- Heating Design Air Flow Rate {m3/s}
  ,                                       !- Heating Maximum Air Flow per Zone Floor Area {m3/s-m2}
  ,                                       !- Heating Maximum Air Flow {m3/s}
  ,                                       !- Heating Maximum Air Flow Fraction
  No,                                     !- Account for Dedicated Outdoor Air System
  NeutralSupplyAir,                       !- Dedicated Outdoor Air System Control Strategy
  autosize,                               !- Dedicated Outdoor Air Low Setpoint Temperature for Design {C}
  autosize,                               !- Dedicated Outdoor Air High Setpoint Temperature for Design {C}
  Sensible Load Only No Latent Load,      !- Zone Load Sizing Method
  HumidityRatioDifference,                !- Zone Latent Cooling Design Supply Air Humidity Ratio Input Method
  ,                                       !- Zone Dehumidification Design Supply Air Humidity Ratio {kgWater/kgDryAir}
  0.005,                                  !- Zone Cooling Design Supply Air Humidity Ratio Difference {kgWater/kgDryAir}
  HumidityRatioDifference,                !- Zone Latent Heating Design Supply Air Humidity Ratio Input Method
  ,                                       !- Zone Humidification Design Supply Air Humidity Ratio {kgWater/kgDryAir}
  0.005,                                  !- Zone Humidification Design Supply Air Humidity Ratio Difference {kgWater/kgDryAir}
  ,                                       !- Zone Humidistat Dehumidification Set Point Schedule Name
  ,                                       !- Zone Humidistat Humidification Set Point Schedule Name
  ,                                       !- Design Zone Air Distribution Effectiveness in Cooling Mode
  ,                                       !- Design Zone Air Distribution Effectiveness in Heating Mode
  ,                                       !- Design Zone Secondary Recirculation Fraction {dimensionless}
  ,                                       !- Design Minimum Zone Ventilation Efficiency {dimensionless}
  Coincident;                             !- Sizing Option

OS:ZoneHVAC:EquipmentList,
  {152a837c-d0ba-4789-8dfb-b5f31c48ae85}, !- Handle
  Zone HVAC Equipment List 2,             !- Name
  {d92fde86-64bc-4029-a7b6-87632200ec1e}; !- Thermal Zone

OS:AdditionalProperties,
  {4bb5ba0f-56d3-419c-bdf5-96fd230ce002}, !- Handle
  {d92fde86-64bc-4029-a7b6-87632200ec1e}, !- Object Name
  ObjectType,                             !- Feature Name 1
  String,                                 !- Feature Data Type 1
  attic - vented;                         !- Feature Value 1

OS:Space,
  {2a762dc6-4db4-4b1d-8249-b134a613dc48}, !- Handle
  attic - vented 1,                       !- Name
  ,                                       !- Space Type Name
  ,                                       !- Default Construction Set Name
  ,                                       !- Default Schedule Set Name
  ,                                       !- Direction of Relative North {deg}
  ,                                       !- X Origin {m}
  ,                                       !- Y Origin {m}
  ,                                       !- Z Origin {m}
  ,                                       !- Building Story Name
  {d92fde86-64bc-4029-a7b6-87632200ec1e}, !- Thermal Zone Name
  ,                                       !- Part of Total Floor Area
  ,                                       !- Design Specification Outdoor Air Object Name
  ,                                       !- Building Unit Name
  356.389957095237;                       !- Volume {m3}

OS:Material,
  {5b182a64-7033-4a47-98d4-aef29472a304}, !- Handle
  asphalt or fiberglass shingles,         !- Name
  Rough,                                  !- Roughness
  0.00635,                                !- Thickness {m}
  0.162714,                               !- Conductivity {W/m-K}
  1121.4,                                 !- Density {kg/m3}
  1465.45,                                !- Specific Heat {J/kg-K}
  0.9,                                    !- Thermal Absorptance
  0.85,                                   !- Solar Absorptance