
OS:Version,
  {90c63c79-556d-4790-ab46-3a417e57d21f}, !- Handle
  3.10.0;                                 !- Version Identifier

OS:SimulationControl,
  {00f2205a-ee2f-48e5-b1d6-e7746be2e70f}, !- Handle
  ,                                       !- Do Zone Sizing Calculation
  ,                                       !- Do System Sizing Calculation
  ,                                       !- Do Plant Sizing Calculation
  No;                                     !- Run Simulation for Sizing Periods

OS:Timestep,
  {0f648595-5b4b-42ca-be5b-3f28cc4a0778}, !- Handle
  1;                                      !- Number of Timesteps per Hour

OS:ShadowCalculation,
  {1d25d3dc-d3ee-4bed-abff-3c2a3bfa9ed5}, !- Handle
  PolygonClipping,                        !- Shading Calculation Method
  ,                                       !- Shading Calculation Update Frequency Method
  20,                                     !- Shading Calculation Update Frequency
  200,                                    !- Maximum Figures in Shadow Overlap Calculations
  ,                                       !- Polygon Clipping Algorithm
  512,                                    !- Pixel Counting Resolution
  ,                                       !- Sky Diffuse Modeling Algorithm
  No,                                     !- Output External Shading Calculation Results
  No,                                     !- Disable Self-Shading Within Shading Zone Groups
  No;                                     !- Disable Self-Shading From Shading Zone Groups to Other Zones

OS:SurfaceConvectionAlgorithm:Outside,
  {1a224c60-aa5f-45c9-9870-5a37ae09e3f8}, !- Handle
  DOE-2;                                  !- Algorithm

OS:SurfaceConvectionAlgorithm:Inside,
  {7cc3054b-aa0c-418b-9774-6692ae32057c}, !- Handle
  TARP;                                   !- Algorithm

OS:ZoneCapacitanceMultiplier:ResearchSpecial,
  {46a2f4c9-99c5-415a-942b-3292a68222df}, !- Handle
  7,                                      !- Temperature Capacity Multiplier
  15,                                     !- Humidity Capacity Multiplier
  ;                                       !- Carbon Dioxide Capacity Multiplier

OS:ConvergenceLimits,
  {40d46fbd-d3d8-4b09-bbda-32fe9f87a9c3}, !- Handle
  0;                                      !- Minimum System Timestep {minutes}

OS:RunPeriod,
  {8345ebc3-0c1c-40e8-98b7-6b27f71139bc}, !- Handle
  Run Period 1,                           !- Name
  1,                                      !- Begin Month
  1,                                      !- Begin Day of Month
  12,                                     !- End Month
  31,                                     !- End Day of Month
  ,                                       !- Use Weather File Holidays and Special Days
  ,                                       !- Use Weather File Daylight Saving Period
  ,                                       !- Apply Weekend Holiday Rule
  ,                                       !- Use Weather File Rain Indicators
  ,                                       !- Use Weather File Snow Indicators
  ;                                       !- Number of Times Runperiod to be Repeated

OS:PerformancePrecisionTradeoffs,
  {0d1bc123-2e19-432c-b50d-de6113d2f9d0}, !- Handle
  ,                                       !- Use Coil Direct Solutions
  CarrollMRT;                             !- Zone Radiant Exchange Algorithm

OS:WeatherFile,
  {f132605c-bce3-42e7-9091-87532d88ffc3}, !- Handle
  Buffalo Niagara Intl Ap,                !- City
  NY,                                     !- State Province Region
  USA,                                    !- Country
  TMY3,                                   !- Data Source
  725280,                                 !- WMO Number
  42.93,                                  !- Latitude {deg}
  -78.73,                                 !- Longitude {deg}
  -5,                                     !- Time Zone {hr}
  215,                                    !- Elevation {m}
  /Users/nmoore/github/urbanopt-example-geojson-project/example_project/weather/USA_NY_Buffalo-Greater.Buffalo.Intl.AP.725280_TMY3.epw, !- Url
  6B50E0FF,                               !- Checksum
  ,                                       !- Start Date Actual Year
  Sunday;                                 !- Start Day of Week

OS:YearDescription,
  {6911522a-e01c-421f-877f-92302e7ee703}, !- Handle
  2007,                                   !- Calendar Year
  ,                                       !- Day of Week for Start Day
  ;                                       !- Is Leap Year

OS:Site,
  {b9ae62b4-e06e-466c-9049-0085392fba0f}, !- Handle
  Buffalo Niagara Intl Ap_NY,             !- Name
  42.93,                                  !- Latitude {deg}
  -78.73,                                 !- Longitude {deg}
  -5,                                     !- Time Zone {hr}
  215,                                    !- Elevation {m}
  Suburbs,                                !- Terrain
  Yes;                                    !- Keep Site Location Information

OS:RunPeriodControl:DaylightSavingTime,
  {53e559d2-1b89-4eca-8e75-18c152126acc}, !- Handle
  Mar 12,                                 !- Start Date
  Nov 5;                                  !- End Date

OS:Site:GroundTemperature:Shallow,
  {3a88a534-b35f-4a0f-b1f4-caf2ed3df47a}, !- Handle
  4.30207395723828,                       !- January Surface Ground Temperature {C}
  2.29327249652502,                       !- February Surface Ground Temperature {C}
  2.13240047156047,                       !- March Surface Ground Temperature {C}
  3.08567940719286,                       !- April Surface Ground Temperature {C}
  6.91256312497526,                       !- May Surface Ground Temperature {C}
  10.7216195949507,                       !- June Surface Ground Temperature {C}
  14.0238679822574,                       !- July Surface Ground Temperature {C}
  16.1157611184724,                       !- August Surface Ground Temperature {C}
  16.2934789303462,                       !- September Surface Ground Temperature {C}
  14.5920754632847,                       !- October Surface Ground Temperature {C}
  11.374036348653,                        !- November Surface Ground Temperature {C}
  7.68182621661674;                       !- December Surface Ground Temperature {C}

OS:ThermalZone,
  {4763561c-3770-461c-a40e-00e949599b27}, !- Handle
  conditioned space,                      !- Name
  1,                                      !- Multiplier
  ,                                       !- Ceiling Height {m}
  692.06373070848,                        !- Volume {m3}
  ,                                       !- Floor Area {m2}
  ,                                       !- Zone Inside Convection Algorithm
  ,                                       !- Zone Outside Convection Algorithm
  ,                                       !- Zone Conditioning Equipment List Name
  {f1a8a9eb-408b-4e48-bfd7-3bb7826dd0ba}, !- Zone Air Inlet Port List
  {3283fea4-1da6-4f5a-96c7-b6483b82f4ac}, !- Zone Air Exhaust Port List
  {0c7a7696-0eb3-4e2b-83b6-5bf04561fb30}, !- Zone Air Node Name
  {e722102d-0009-42dc-a7ca-4e19f21ec37c}, !- Zone Return Air Port List
  ,                                       !- Primary Daylighting Control Name
  ,                                       !- Fraction of Zone Controlled by Primary Daylighting Control
  ,                                       !- Secondary Daylighting Control Name
  ,                                       !- Fraction of Zone Controlled by Secondary Daylighting Control
  ,                                       !- Illuminance Map Name
  ,                                       !- Group Rendering Name
  {c509d44a-38b6-4ccf-8879-0ceb68477a38}, !- Thermostat Name
  No;                                     !- Use Ideal Air Loads

OS:Node,
  {a79d0653-0d27-4fb6-833c-b75097fdf11f}, !- Handle
  Node 1,                                 !- Name
  {0c7a7696-0eb3-4e2b-83b6-5bf04561fb30}, !- Inlet Port
  ;                                       !- Outlet Port

OS:Connection,
  {0c7a7696-0eb3-4e2b-83b6-5bf04561fb30}, !- Handle
  {4763561c-3770-461c-a40e-00e949599b27}, !- Source Object
  11,                                     !- Outlet Port
  {a79d0653-0d27-4fb6-833c-b75097fdf11f}, !- Target Object
  2;                                      !- Inlet Port

OS:PortList,
  {f1a8a9eb-408b-4e48-bfd7-3bb7826dd0ba}, !- Handle
  {4763561c-3770-461c-a40e-00e949599b27}, !- HVAC Component
  {b36e55d0-87fe-4a03-8305-cd731648f482}; !- Port 1

OS:PortList,
  {3283fea4-1da6-4f5a-96c7-b6483b82f4ac}, !- Handle
  {4763561c-3770-461c-a40e-00e949599b27}; !- HVAC Component

OS:PortList,
  {e722102d-0009-42dc-a7ca-4e19f21ec37c}, !- Handle
  {4763561c-3770-461c-a40e-00e949599b27}, !- HVAC Component
  {cf28e71b-d390-4400-98bb-0c605de9a7d5}; !- Port 1

OS:Sizing:Zone,
  {9cba00a9-58a2-439b-ab28-7720d3fbbd28}, !- Handle
  {4763561c-3770-461c-a40e-00e949599b27}, !- Zone or ZoneList Name
  SupplyAirTemperature,                   !- Zone Cooling Design Supply Air Temperature Input Method
  14,                                     !- Zone Cooling Design Supply Air Temperature {C}
  11.11,                                  !- Zone Cooling Design Supply Air Temperature Difference {deltaC}
  SupplyAirTemperature,                   !- Zone Heating Design Supply Air Temperature Input Method
  40,                                     !- Zone Heating Design Supply Air Temperature {C}
  11.11,                                  !- Zone Heating Design Supply Air Temperature Difference {deltaC}
  0.0085,                                 !- Zone Cooling Design Supply Air Humidity Ratio {kg-H2O/kg-air}
  0.008,                                  !- Zone Heating Design Supply Air Humidity Ratio {kg-H2O/kg-air}
  ,                                       !- Zone Heating Sizing Factor
  ,                                       !- Zone Cooling Sizing Factor
  DesignDay,                              !- Cooling Design Air Flow Method
  ,                                       !- Cooling Design Air Flow Rate {m3/s}
  ,                                       !- Cooling Minimum Air Flow per Zone Floor Area {m3/s-m2}
  ,                                       !- Cooling Minimum Air Flow {m3/s}
  ,                                       !- Cooling Minimum Air Flow Fraction
  DesignDay,                              !- Heating Design Air Flow Method
  ,                                       !- Heating Design Air Flow Rate {m3/s}
  ,                                       !- Heating Maximum Air Flow per Zone Floor Area {m3/s-m2}
  ,                                       !- Heating Maximum Air Flow {m3/s}
  ,                                       !- Heating Maximum Air Flow Fraction
  No,                                     !- Account for Dedicated Outdoor Air System
  NeutralSupplyAir,                       !- Dedicated Outdoor Air System Control Strategy
  autosize,                               !- Dedicated Outdoor Air Low Setpoint Temperature for Design {C}
  autosize,                               !- Dedicated Outdoor Air High Setpoint Temperature for Design {C}
  Sensible Load Only No Latent Load,      !- Zone Load Sizing Method
  HumidityRatioDifference,                !- Zone Latent Cooling Design Supply Air Humidity Ratio Input Method
  ,                                       !- Zone Dehumidification Design Supply Air Humidity Ratio {kgWater/kgDryAir}
  0.005,                                  !- Zone Cooling Design Supply Air Humidity Ratio Difference {kgWater/kgDryAir}
  HumidityRatioDifference,                !- Zone Latent Heating Design Supply Air Humidity Ratio Input Method
  ,                                       !- Zone Humidification Design Supply Air Humidity Ratio {kgWater/kgDryAir}
  0.005,                                  !- Zone Humidification Design Supply Air Humidity Ratio Difference {kgWater/kgDryAir}
  ,                                       !- Zone Humidistat Dehumidification Set Point Schedule Name
  ,                                       !- Zone Humidistat Humidification Set Point Schedule Name
  ,                                       !- Design Zone Air Distribution Effectiveness in Cooling Mode
  ,                                       !- Design Zone Air Distribution Effectiveness in Heating Mode
  ,                                       !- Design Zone Secondary Recirculation Fraction {dimensionless}
  ,                                       !- Design Minimum Zone Ventilation Efficiency {dimensionless}
  Coincident;                             !- Sizing Option

OS:ZoneHVAC:EquipmentList,
  {394ce233-bd94-4aa8-bd71-afec45e84371}, !- Handle
  Zone HVAC Equipment List 1,             !- Name
  {4763561c-3770-461c-a40e-00e949599b27}, !- Thermal Zone
  ,                                       !- Load Distribution Scheme
  {a78ef431-b39a-4635-a0d2-c9d4fa240e55}, !- Zone Equipment 1
  1,                                      !- Zone Equipment Cooling Sequence 1
  1,                                      !- Zone Equipment Heating or No-Load Sequence 1
  {07ab401f-10e4-4981-81e6-8ffb014f813e}, !- Zone Equipment Sequential Cooling Fraction Schedule Name 1
  {5058c445-d4e7-46f7-93c2-8f2afa171f25}; !- Zone Equipment Sequential Heating Fraction Schedule Name 1

OS:AdditionalProperties,
  {824511a3-c89f-49d2-b3a1-0ba367ecc302}, !- Handle
  {4763561c-3770-461c-a40e-00e949599b27}, !- Object Name
  ObjectType,                             !- Feature Name 1
  String,                                 !- Feature Data Type 1
  conditioned space;                      !- Feature Value 1

OS:Space,
  {df14068b-cf8b-4894-b094-67ede630877b}, !- Handle
  conditioned space 1,                    !- Name
  ,                                       !- Space Type Name
  ,                                       !- Default Construction Set Name
  ,                                       !- Default Schedule Set Name
  ,                                       !- Direction of Relative North {deg}
  ,                                       !- X Origin {m}
  ,                                       !- Y Origin {m}
  ,                                       !- Z Origin {m}
  ,                                       !- Building Story Name
  {4763561c-3770-461c-a40e-00e949599b27}, !- Thermal Zone Name
  ,                                       !- Part of Total Floor Area
  ,                                       !- Design Specification Outdoor Air Object Name
  ,                                       !- Building Unit Name
  692.06373070848;                        !- Volume {m3}

OS:Schedule:Ruleset,
  {3f96c503-7a0c-46fc-9aa3-d182e2dd27a5}, !- Handle
  heating setpoint,                       !- Name
  {130c77ed-5b71-4d6b-8ead-3b4d46920fd9}, !- Schedule Type Limits Name
  {15841e19-2479-4227-80da-cae0ba952331}; !- Default Day Schedule Name

OS:Schedule:Day,
  {15841e19-2479-4227-80da-cae0ba952331}, !- Handle
  heating setpoint default day,           !- Name
  {130c77ed-5b71-4d6b-8ead-3b4d46920fd9}, !- Schedule Type Limits Name
  ,                                       !- Interpolate to Timestep
  24,                                     !- Hour 1
  0,                                      !- Minute 1
  0;                                      !- Value Until Time 1

OS:Schedule:Rule,
  {076045f7-e179-41e0-9f10-7c85bfb8bc5e}, !- Handle
  heating setpoint allday rule,           !- Name
  {3f96c503-7a0c-46fc-9aa3-d182e2dd27a5}, !- Schedule Ruleset Name
  0,                                      !- Rule Order
  {80f788b7-c228-49c6-b714-84e98b39af84}, !- Day Schedule Name
  Yes,                                    !- Apply Sunday
  Yes,                                    !- Apply Monday
  Yes,                                    !- Apply Tuesday
  Yes,                                    !- Apply Wednesday
  Yes,                                    !- Apply Thursday
  Yes,                                    !- Apply Friday
  Yes,                                    !- Apply Saturday
  DateRange,                              !- Date Specification Type
  1,                                      !- Start Month
  1,                                      !- Start Day
  12,                                     !- End Month
  31;                                     !- End Day

OS:Schedule:Day,
  {80f788b7-c228-49c6-b714-84e98b39af84}, !- Handle
  heating setpoint day,                   !- Name
  {130c77ed-5b71-4d6b-8ead-3b4d46920fd9}, !- Schedule Type Limits Name
  ,                                       !- Interpolate to Timestep
  24,                                     !- Hour 1
  0,                                      !- Minute 1
  20;                                     !- Value Until Time 1

OS:Schedule:Ruleset,
  {a0a0a1ef-11b3-4827-8faa-c9202bd52a2e}, !- Handle
  cooling setpoint,                       !- Name
  {130c77ed-5b71-4d6b-8ead-3b4d46920fd9}, !- Schedule Type Limits Name
  {d60cab47-d005-41d7-8eae-01e6f0e2234d}; !- Default Day Schedule Name

OS:Schedule:Day,
  {d60cab47-d005-41d7-8eae-01e6f0e2234d}, !- Handle
  cooling setpoint default day,           !- Name
  {130c77ed-5b71-4d6b-8ead-3b4d46920fd9}, !- Schedule Type Limits Name
  ,                                       !- Interpolate to Timestep
  24,                                     !- Hour 1
  0,                                      !- Minute 1
  0;                                      !- Value Until Time 1

OS:Schedule:Rule,
  {b0934e7a-cb62-403d-992b-d47226d6a443}, !- Handle
  cooling setpoint allday rule,           !- Name
  {a0a0a1ef-11b3-4827-8faa-c9202bd52a2e}, !- Schedule Ruleset Name
  0,                                      !- Rule Order
  {c9af2a12-4e42-480b-aa72-8669fa3d56b2}, !- Day Schedule Name
  Yes,                                    !- Apply Sunday
  Yes,                                    !- Apply Monday
  Yes,                                    !- Apply Tuesday
  Yes,                                    !- Apply Wednesday
  Yes,                                    !- Apply Thursday
  Yes,                                    !- Apply Friday
  Yes,                                    !- Apply Saturday
  DateRange,                              !- Date Specification Type
  1,                                      !- Start Month
  1,                                      !- Start Day
  12,                                     !- End Month
  31;                                     !- End Day

OS:Schedule:Day,
  {c9af2a12-4e42-480b-aa72-8669fa3d56b2}, !- Handle
  cooling setpoint day,                   !- Name
  {130c77ed-5b71-4d6b-8ead-3b4d46920fd9}, !- Schedule Type Limits Name
  ,                                       !- Interpolate to Timestep
  24,                                     !- Hour 1
  0,                                      !- Minute 1
  25.5555555555556;                       !- Value Until Time 1

OS:ThermostatSetpoint:DualSetpoint,
  {c509d44a-38b6-4ccf-8879-0ceb68477a38}, !- Handle
  conditioned space temperature setpoint, !- Name
  {3f96c503-7a0c-46fc-9aa3-d182e2dd27a5}, !- Heating Setpoint Temperature Schedule Name
  {a0a0a1ef-11b3-4827-8faa-c9202bd52a2e}, !- Cooling Setpoint Temperature Schedule Name
  0;                                      !- Temperature Difference Between Cutout And Setpoint {deltaC}

OS:ScheduleTypeLimits,
  {130c77ed-5b71-4d6b-8ead-3b4d46920fd9}, !- Handle
  Temperature,                            !- Name
  ,                                       !- Lower Limit Value
  ,                                       !- Upper Limit Value
  Continuous,                             !- Numeric Type
  Temperature;                            !- Unit Type

OS:Surface,
  {4074a834-7d93-4353-81d4-2f3d2f291a4e}, !- Handle
  Roof1,                                  !- Name
  RoofCeiling,                            !- Surface Type
  {3efefe76-49c7-4335-9c2f-2794e6834718}, !- Construction Name
  {b081ae31-c620-4fb2-ae90-e59648bf5465}, !- Space Name
  Outdoors,                               !- Outside Boundary Condition
  ,                                       !- Outside Boundary Condition Object
  SunExposed,                             !- Sun Exposure
  WindExposed,                            !- Wind Exposure
  ,                                       !- View Factor to Ground
  ,                                       !- Number of Vertices
  -26.9347048849634, 58.0557891618865, 2.4384, !- X,Y,Z Vertex 1 {m}
  -26.9347048849634, 46.7895631136661, 8.0715130241102, !- X,Y,Z Vertex 2 {m}
  -14.3386812381136, 46.7895631136661, 8.0715130241102, !- X,Y,Z Vertex 3 {m}
  -14.3386812381136, 58.0557891618865, 2.4384; !- X,Y,Z Vertex 4 {m}

OS:AdditionalProperties,
  {4ad108ed-24ab-4417-9cb4-4790d97da67d}, !- Handle
  {4074a834-7d93-4353-81d4-2f3d2f291a4e}, !- Object Name
  Length,                                 !- Feature Name 1
  Double,                                 !- Feature Data Type 1
  41.325536899113608,                     !- Feature Value 1
  Width,                                  !- Feature Name 2
  Double,                                 !- Feature Data Type 2
  41.325536899113601,                     !- Feature Value 2
  Azimuth,                                !- Feature Name 3
  Integer,                                !- Feature Data Type 3
  0,                                      !- Feature Value 3
  Tilt,                                   !- Feature Name 4
  Double,                                 !- Feature Data Type 4
  0.5,                                    !- Feature Value 4
  SurfaceType,                            !- Feature Name 5
  String,                                 !- Feature Data Type 5
  Roof;                                   !- Feature Value 5

OS:ThermalZone,
  {6fc9ff8b-b192-46c4-be19-457431ce31cd}, !- Handle
  attic - vented,                         !- Name
  1,                                      !- Multiplier
  ,                                       !- Ceiling Height {m}
  356.390921899745,                       !- Volume {m3}
  ,                                       !- Floor Area {m2}
  ,                                       !- Zone Inside Convection Algorithm
  ,                                       !- Zone Outside Convection Algorithm
  ,                                       !- Zone Conditioning Equipment List Name
  {d55aeedb-8284-47b8-9c1b-57fbebc7be17}, !- Zone Air Inlet Port List
  {d3c80d48-df6e-480d-b072-b0fe592619d8}, !- Zone Air Exhaust Port List
  {dd6536f5-de7c-4e37-b458-471b524b44e9}, !- Zone Air Node Name
  {5b11de96-f7af-4219-b971-ecafa407c049}, !- Zone Return Air Port List
  ,                                       !- Primary Daylighting Control Name
  ,                                       !- Fraction of Zone Controlled by Primary Daylighting Control
  ,                                       !- Secondary Daylighting Control Name
  ,                                       !- Fraction of Zone Controlled by Secondary Daylighting Control
  ,                                       !- Illuminance Map Name
  ,                                       !- Group Rendering Name
  ,                                       !- Thermostat Name
  No;                                     !- Use Ideal Air Loads

OS:Node,
  {c0ebfff3-43f8-4ac5-8316-3cb2e3fd7b0f}, !- Handle
  Node 2,                                 !- Name
  {dd6536f5-de7c-4e37-b458-471b524b44e9}, !- Inlet Port
  ;                                       !- Outlet Port

OS:Connection,
  {dd6536f5-de7c-4e37-b458-471b524b44e9}, !- Handle
  {6fc9ff8b-b192-46c4-be19-457431ce31cd}, !- Source Object
  11,                                     !- Outlet Port
  {c0ebfff3-43f8-4ac5-8316-3cb2e3fd7b0f}, !- Target Object
  2;                                      !- Inlet Port

OS:PortList,
  {d55aeedb-8284-47b8-9c1b-57fbebc7be17}, !- Handle
  {6fc9ff8b-b192-46c4-be19-457431ce31cd}; !- HVAC Component

OS:PortList,
  {d3c80d48-df6e-480d-b072-b0fe592619d8}, !- Handle
  {6fc9ff8b-b192-46c4-be19-457431ce31cd}; !- HVAC Component

OS:PortList,
  {5b11de96-f7af-4219-b971-ecafa407c049}, !- Handle
  {6fc9ff8b-b192-46c4-be19-457431ce31cd}; !- HVAC Component

OS:Sizing:Zone,
  {f62a7da9-3386-4d8a-b7a8-481dd5d8c88e}, !- Handle
  {6fc9ff8b-b192-46c4-be19-457431ce31cd}, !- Zone or ZoneList Name
  SupplyAirTemperature,                   !- Zone Cooling Design Supply Air Temperature Input Method
  14,                                     !- Zone Cooling Design Supply Air Temperature {C}
  11.11,                                  !- Zone Cooling Design Supply Air Temperature Difference {deltaC}
  SupplyAirTemperature,                   !- Zone Heating Design Supply Air Temperature Input Method
  40,                                     !- Zone Heating Design Supply Air Temperature {C}
  11.11,                                  !- Zone Heating Design Supply Air Temperature Difference {deltaC}
  0.0085,                                 !- Zone Cooling Design Supply Air Humidity Ratio {kg-H2O/kg-air}
  0.008,                                  !- Zone Heating Design Supply Air Humidity Ratio {kg-H2O/kg-air}
  ,                                       !- Zone Heating Sizing Factor
  ,                                       !- Zone Cooling Sizing Factor
  DesignDay,                              !- Cooling Design Air Flow Method
  ,                                       !- Cooling Design Air Flow Rate {m3/s}
  ,                                       !- Cooling Minimum Air Flow per Zone Floor Area {m3/s-m2}
  ,                                       !- Cooling Minimum Air Flow {m3/s}
  ,                                       !- Cooling Minimum Air Flow Fraction
  DesignDay,                              !- Heating Design Air Flow Method
  ,                                       !- Heating Design Air Flow Rate {m3/s}
  ,                                       !- Heating Maximum Air Flow per Zone Floor Area {m3/s-m2}
  ,                                       !- Heating Maximum Air Flow {m3/s}
  ,                                       !- Heating Maximum Air Flow Fraction
  No,                                     !- Account for Dedicated Outdoor Air System
  NeutralSupplyAir,                       !- Dedicated Outdoor Air System Control Strategy
  autosize,                               !- Dedicated Outdoor Air Low Setpoint Temperature for Design {C}
  autosize,                               !- Dedicated Outdoor Air High Setpoint Temperature for Design {C}
  Sensible Load Only No Latent Load,      !- Zone Load Sizing Method
  HumidityRatioDifference,                !- Zone Latent Cooling Design Supply Air Humidity Ratio Input Method
  ,                                       !- Zone Dehumidification Design Supply Air Humidity Ratio {kgWater/kgDryAir}
  0.005,                                  !- Zone Cooling Design Supply Air Humidity Ratio Difference {kgWater/kgDryAir}
  HumidityRatioDifference,                !- Zone Latent Heating Design Supply Air Humidity Ratio Input Method
  ,                                       !- Zone Humidification Design Supply Air Humidity Ratio {kgWater/kgDryAir}
  0.005,                                  !- Zone Humidification Design Supply Air Humidity Ratio Difference {kgWater/kgDryAir}
  ,                                       !- Zone Humidistat Dehumidification Set Point Schedule Name
  ,                                       !- Zone Humidistat Humidification Set Point Schedule Name
  ,                                       !- Design Zone Air Distribution Effectiveness in Cooling Mode
  ,                                       !- Design Zone Air Distribution Effectiveness in Heating Mode
  ,                                       !- Design Zone Secondary Recirculation Fraction {dimensionless}
  ,                                       !- Design Minimum Zone Ventilation Efficiency {dimensionless}
  Coincident;                             !- Sizing Option

OS:ZoneHVAC:EquipmentList,
  {cffa348c-42a5-45da-993b-a268461dc4d7}, !- Handle
  Zone HVAC Equipment List 2,             !- Name
  {6fc9ff8b-b192-46c4-be19-457431ce31cd}; !- Thermal Zone

OS:AdditionalProperties,
  {f4d96f4e-5964-4e98-b5db-3d6ac87282ea}, !- Handle
  {6fc9ff8b-b192-46c4-be19-457431ce31cd}, !- Object Name
  ObjectType,                             !- Feature Name 1
  String,                                 !- Feature Data Type 1
  attic - vented;                         !- Feature Value 1

OS:Space,
  {b081ae31-c620-4fb2-ae90-e59648bf5465}, !- Handle
  attic - vented 1,                       !- Name
  ,                                       !- Space Type Name
  ,                                       !- Default Construction Set Name
  ,                                       !- Default Schedule Set Name
  ,                                       !- Direction of Relative North {deg}
  ,                                       !- X Origin {m}
  ,                                       !- Y Origin {m}
  ,                                       !- Z Origin {m}
  ,                                       !- Building Story Name
  {6fc9ff8b-b192-46c4-be19-457431ce31cd}, !- Thermal Zone Name
  ,                                       !- Part of Total Floor Area
  ,                                       !- Design Specification Outdoor Air Object Name
  ,                                       !- Building Unit Name
  356.390921899745;                       !- Volume {m3}

OS:Material,
  {a22c0b2f-c332-49d0-909b-198627c85d74}, !- Handle
  asphalt or fiberglass shingles,         !- Name
  Rough,                                  !- Roughness
  0.00635,                                !- Thickness {m}
  0.162714,                               !- Conductivity {W/m-K}
  1121.4,                                 !- Density {kg/m3}
  1465.45,                                !- Specific Heat {J/kg-K}
  0.9,                                    !- Thermal Absorptance
  0.85,                                   !- Solar Absorptance