
OS:Version,
  {1d6f266f-672d-40c1-b6b3-3eb03829ca2c}, !- Handle
  3.10.0;                                 !- Version Identifier

OS:SimulationControl,
  {0b2407b1-c5ed-440f-b86d-afffa57aec59}, !- Handle
  ,                                       !- Do Zone Sizing Calculation
  ,                                       !- Do System Sizing Calculation
  ,                                       !- Do Plant Sizing Calculation
  No;                                     !- Run Simulation for Sizing Periods

OS:Timestep,
  {558bce69-f839-4b1c-93d3-311cecbde021}, !- Handle
  1;                                      !- Number of Timesteps per Hour

OS:ShadowCalculation,
  {21d20630-d39a-4af0-a81b-a02f00d8e3df}, !- Handle
  PolygonClipping,                        !- Shading Calculation Method
  ,                                       !- Shading Calculation Update Frequency Method
  20,                                     !- Shading Calculation Update Frequency
  200,                                    !- Maximum Figures in Shadow Overlap Calculations
  ,                                       !- Polygon Clipping Algorithm
  512,                                    !- Pixel Counting Resolution
  ,                                       !- Sky Diffuse Modeling Algorithm
  No,                                     !- Output External Shading Calculation Results
  No,                                     !- Disable Self-Shading Within Shading Zone Groups
  No;                                     !- Disable Self-Shading From Shading Zone Groups to Other Zones

OS:SurfaceConvectionAlgorithm:Outside,
  {54eb0c8a-2c03-4f88-bb9a-b6096f495a2d}, !- Handle
  DOE-2;                                  !- Algorithm

OS:SurfaceConvectionAlgorithm:Inside,
  {073b6d50-7e04-4353-8184-5d05e1c38b3c}, !- Handle
  TARP;                                   !- Algorithm

OS:ZoneCapacitanceMultiplier:ResearchSpecial,
  {5bc34267-d996-4f9f-9119-134e84a613e3}, !- Handle
  7,                                      !- Temperature Capacity Multiplier
  15,                                     !- Humidity Capacity Multiplier
  ;                                       !- Carbon Dioxide Capacity Multiplier

OS:ConvergenceLimits,
  {df551162-34ce-4506-81a2-273d61a1b4ee}, !- Handle
  0;                                      !- Minimum System Timestep {minutes}

OS:RunPeriod,
  {094ef918-98ed-430f-ac85-e2239d4a3756}, !- Handle
  Run Period 1,                           !- Name
  1,                                      !- Begin Month
  1,                                      !- Begin Day of Month
  12,                                     !- End Month
  31,                                     !- End Day of Month
  ,                                       !- Use Weather File Holidays and Special Days
  ,                                       !- Use Weather File Daylight Saving Period
  ,                                       !- Apply Weekend Holiday Rule
  ,                                       !- Use Weather File Rain Indicators
  ,                                       !- Use Weather File Snow Indicators
  ;                                       !- Number of Times Runperiod to be Repeated

OS:PerformancePrecisionTradeoffs,
  {44a52386-d84f-4d24-b123-9bab1f2722a4}, !- Handle
  ,                                       !- Use Coil Direct Solutions
  CarrollMRT;                             !- Zone Radiant Exchange Algorithm

OS:WeatherFile,
  {18a972d4-68f2-44d7-be41-10f468385d20}, !- Handle
  Buffalo Niagara Intl Ap,                !- City
  NY,                                     !- State Province Region
  USA,                                    !- Country
  TMY3,                                   !- Data Source
  725280,                                 !- WMO Number
  42.93,                                  !- Latitude {deg}
  -78.73,                                 !- Longitude {deg}
  -5,                                     !- Time Zone {hr}
  215,                                    !- Elevation {m}
  /Users/nmoore/github/urbanopt-example-geojson-project/example_project/weather/USA_NY_Buffalo-Greater.Buffalo.Intl.AP.725280_TMY3.epw, !- Url
  6B50E0FF,                               !- Checksum
  ,                                       !- Start Date Actual Year
  Sunday;                                 !- Start Day of Week

OS:YearDescription,
  {af9667bb-1c4c-4366-bb2c-ffec6bf4bd22}, !- Handle
  2007,                                   !- Calendar Year
  ,                                       !- Day of Week for Start Day
  ;                                       !- Is Leap Year

OS:Site,
  {e7cccbdf-c912-46f1-8730-7d5d2a08eebf}, !- Handle
  Buffalo Niagara Intl Ap_NY,             !- Name
  42.93,                                  !- Latitude {deg}
  -78.73,                                 !- Longitude {deg}
  -5,                                     !- Time Zone {hr}
  215,                                    !- Elevation {m}
  Suburbs,                                !- Terrain
  Yes;                                    !- Keep Site Location Information

OS:RunPeriodControl:DaylightSavingTime,
  {79b996a0-2155-44a1-8777-812bbdb6abcb}, !- Handle
  Mar 12,                                 !- Start Date
  Nov 5;                                  !- End Date

OS:Site:GroundTemperature:Shallow,
  {b7b54ea5-e5a6-4d38-a765-8092a3b25338}, !- Handle
  4.30207395723828,                       !- January Surface Ground Temperature {C}
  2.29327249652502,                       !- February Surface Ground Temperature {C}
  2.13240047156047,                       !- March Surface Ground Temperature {C}
  3.08567940719286,                       !- April Surface Ground Temperature {C}
  6.91256312497526,                       !- May Surface Ground Temperature {C}
  10.7216195949507,                       !- June Surface Ground Temperature {C}
  14.0238679822574,                       !- July Surface Ground Temperature {C}
  16.1157611184724,                       !- August Surface Ground Temperature {C}
  16.2934789303462,                       !- September Surface Ground Temperature {C}
  14.5920754632847,                       !- October Surface Ground Temperature {C}
  11.374036348653,                        !- November Surface Ground Temperature {C}
  7.68182621661674;                       !- December Surface Ground Temperature {C}

OS:ThermalZone,
  {89660b4f-ef10-4b0c-9b81-c5a075252219}, !- Handle
  conditioned space,                      !- Name
  1,                                      !- Multiplier
  ,                                       !- Ceiling Height {m}
  692.06373070848,                        !- Volume {m3}
  ,                                       !- Floor Area {m2}
  ,                                       !- Zone Inside Convection Algorithm
  ,                                       !- Zone Outside Convection Algorithm
  ,                                       !- Zone Conditioning Equipment List Name
  {c7004f05-9892-46e3-af94-7a39c2f6d9c3}, !- Zone Air Inlet Port List
  {587a5cf3-c3c0-4d15-86ee-329e7d24a3ee}, !- Zone Air Exhaust Port List
  {97ac7a0b-280d-4261-8ae4-f2eea6cdbf1a}, !- Zone Air Node Name
  {92c912ff-4bdb-4c43-a4b7-3cc5bc97d97d}, !- Zone Return Air Port List
  ,                                       !- Primary Daylighting Control Name
  ,                                       !- Fraction of Zone Controlled by Primary Daylighting Control
  ,                                       !- Secondary Daylighting Control Name
  ,                                       !- Fraction of Zone Controlled by Secondary Daylighting Control
  ,                                       !- Illuminance Map Name
  ,                                       !- Group Rendering Name
  {f042c1ac-7ee7-4331-8419-4c801c824ed0}, !- Thermostat Name
  No;                                     !- Use Ideal Air Loads

OS:Node,
  {1adafb31-19da-41ba-a195-a13e81be15f2}, !- Handle
  Node 1,                                 !- Name
  {97ac7a0b-280d-4261-8ae4-f2eea6cdbf1a}, !- Inlet Port
  ;                                       !- Outlet Port

OS:Connection,
  {97ac7a0b-280d-4261-8ae4-f2eea6cdbf1a}, !- Handle
  {89660b4f-ef10-4b0c-9b81-c5a075252219}, !- Source Object
  11,                                     !- Outlet Port
  {1adafb31-19da-41ba-a195-a13e81be15f2}, !- Target Object
  2;                                      !- Inlet Port

OS:PortList,
  {c7004f05-9892-46e3-af94-7a39c2f6d9c3}, !- Handle
  {89660b4f-ef10-4b0c-9b81-c5a075252219}, !- HVAC Component
  {fdf4c769-717c-4286-83c0-3d50a6e127b9}, !- Port 1
  {51f37e44-8a1d-47f5-9fef-cc1263f9484f}; !- Port 2

OS:PortList,
  {587a5cf3-c3c0-4d15-86ee-329e7d24a3ee}, !- Handle
  {89660b4f-ef10-4b0c-9b81-c5a075252219}; !- HVAC Component

OS:PortList,
  {92c912ff-4bdb-4c43-a4b7-3cc5bc97d97d}, !- Handle
  {89660b4f-ef10-4b0c-9b81-c5a075252219}, !- HVAC Component
  {575bcd37-50f8-46c7-bff1-c0919a7c44a7}, !- Port 1
  {3d1039c9-64de-4f64-9b93-1e3ef5e0ec2f}; !- Port 2

OS:Sizing:Zone,
  {366ef329-f6ed-40eb-878a-434333bac335}, !- Handle
  {89660b4f-ef10-4b0c-9b81-c5a075252219}, !- Zone or ZoneList Name
  SupplyAirTemperature,                   !- Zone Cooling Design Supply Air Temperature Input Method
  14,                                     !- Zone Cooling Design Supply Air Temperature {C}
  11.11,                                  !- Zone Cooling Design Supply Air Temperature Difference {deltaC}
  SupplyAirTemperature,                   !- Zone Heating Design Supply Air Temperature Input Method
  40,                                     !- Zone Heating Design Supply Air Temperature {C}
  11.11,                                  !- Zone Heating Design Supply Air Temperature Difference {deltaC}
  0.0085,                                 !- Zone Cooling Design Supply Air Humidity Ratio {kg-H2O/kg-air}
  0.008,                                  !- Zone Heating Design Supply Air Humidity Ratio {kg-H2O/kg-air}
  ,                                       !- Zone Heating Sizing Factor
  ,                                       !- Zone Cooling Sizing Factor
  DesignDay,                              !- Cooling Design Air Flow Method
  ,                                       !- Cooling Design Air Flow Rate {m3/s}
  ,                                       !- Cooling Minimum Air Flow per Zone Floor Area {m3/s-m2}
  ,                                       !- Cooling Minimum Air Flow {m3/s}
  ,                                       !- Cooling Minimum Air Flow Fraction
  DesignDay,                              !- Heating Design Air Flow Method
  ,                                       !- Heating Design Air Flow Rate {m3/s}
  ,                                       !- Heating Maximum Air Flow per Zone Floor Area {m3/s-m2}
  ,                                       !- Heating Maximum Air Flow {m3/s}
  ,                                       !- Heating Maximum Air Flow Fraction
  No,                                     !- Account for Dedicated Outdoor Air System
  NeutralSupplyAir,                       !- Dedicated Outdoor Air System Control Strategy
  autosize,                               !- Dedicated Outdoor Air Low Setpoint Temperature for Design {C}
  autosize,                               !- Dedicated Outdoor Air High Setpoint Temperature for Design {C}
  Sensible Load Only No Latent Load,      !- Zone Load Sizing Method
  HumidityRatioDifference,                !- Zone Latent Cooling Design Supply Air Humidity Ratio Input Method
  ,                                       !- Zone Dehumidification Design Supply Air Humidity Ratio {kgWater/kgDryAir}
  0.005,                                  !- Zone Cooling Design Supply Air Humidity Ratio Difference {kgWater/kgDryAir}
  HumidityRatioDifference,                !- Zone Latent Heating Design Supply Air Humidity Ratio Input Method
  ,                                       !- Zone Humidification Design Supply Air Humidity Ratio {kgWater/kgDryAir}
  0.005,                                  !- Zone Humidification Design Supply Air Humidity Ratio Difference {kgWater/kgDryAir}
  ,                                       !- Zone Humidistat Dehumidification Set Point Schedule Name
  ,                                       !- Zone Humidistat Humidification Set Point Schedule Name
  ,                                       !- Design Zone Air Distribution Effectiveness in Cooling Mode
  ,                                       !- Design Zone Air Distribution Effectiveness in Heating Mode
  ,                                       !- Design Zone Secondary Recirculation Fraction {dimensionless}
  ,                                       !- Design Minimum Zone Ventilation Efficiency {dimensionless}
  Coincident;                             !- Sizing Option

OS:ZoneHVAC:EquipmentList,
  {1e3e11c4-6f25-47da-bca6-ba1d81421a92}, !- Handle
  Zone HVAC Equipment List 1,             !- Name
  {89660b4f-ef10-4b0c-9b81-c5a075252219}, !- Thermal Zone
  ,                                       !- Load Distribution Scheme
  {330e0099-6815-45cf-bb2f-8f535411707a}, !- Zone Equipment 1
  1,                                      !- Zone Equipment Cooling Sequence 1
  1,                                      !- Zone Equipment Heating or No-Load Sequence 1
  {1750b627-6ca3-42b0-bca0-12e61858b70e}, !- Zone Equipment Sequential Cooling Fraction Schedule Name 1
  {85d559e1-0862-44a4-93bf-86f6ea070e59}, !- Zone Equipment Sequential Heating Fraction Schedule Name 1
  {49747a1e-25dd-47a0-8fb0-8261e996f175}, !- Zone Equipment 2
  2,                                      !- Zone Equipment Cooling Sequence 2
  2,                                      !- Zone Equipment Heating or No-Load Sequence 2
  {bebed0b4-0b1b-491c-9ebd-4602de910920}, !- Zone Equipment Sequential Cooling Fraction Schedule Name 2
  {49d797f9-095e-4291-adcd-7150a84c55a2}; !- Zone Equipment Sequential Heating Fraction Schedule Name 2

OS:AdditionalProperties,
  {def5d6e7-4ac7-4066-b69c-725e4d003fa1}, !- Handle
  {89660b4f-ef10-4b0c-9b81-c5a075252219}, !- Object Name
  ObjectType,                             !- Feature Name 1
  String,                                 !- Feature Data Type 1
  conditioned space;                      !- Feature Value 1

OS:Space,
  {c90bcf46-5a7c-4f61-976a-635ebd1327dd}, !- Handle
  conditioned space 1,                    !- Name
  ,                                       !- Space Type Name
  ,                                       !- Default Construction Set Name
  ,                                       !- Default Schedule Set Name
  ,                                       !- Direction of Relative North {deg}
  ,                                       !- X Origin {m}
  ,                                       !- Y Origin {m}
  ,                                       !- Z Origin {m}
  ,                                       !- Building Story Name
  {89660b4f-ef10-4b0c-9b81-c5a075252219}, !- Thermal Zone Name
  ,                                       !- Part of Total Floor Area
  ,                                       !- Design Specification Outdoor Air Object Name
  ,                                       !- Building Unit Name
  692.06373070848;                        !- Volume {m3}

OS:Schedule:Ruleset,
  {1ba797ae-1143-4aea-8fe3-a5f0a1db05a7}, !- Handle
  heating setpoint,                       !- Name
  {0b774bce-0dfc-466c-952b-15c10feb7034}, !- Schedule Type Limits Name
  {1939872f-6287-4d04-808b-2aa0f1b1ea43}; !- Default Day Schedule Name

OS:Schedule:Day,
  {1939872f-6287-4d04-808b-2aa0f1b1ea43}, !- Handle
  heating setpoint default day,           !- Name
  {0b774bce-0dfc-466c-952b-15c10feb7034}, !- Schedule Type Limits Name
  ,                                       !- Interpolate to Timestep
  24,                                     !- Hour 1
  0,                                      !- Minute 1
  0;                                      !- Value Until Time 1

OS:Schedule:Rule,
  {e16ed147-4e5c-47cf-a8e7-c38aee327ce3}, !- Handle
  heating setpoint allday rule,           !- Name
  {1ba797ae-1143-4aea-8fe3-a5f0a1db05a7}, !- Schedule Ruleset Name
  0,                                      !- Rule Order
  {53e333f7-b248-40d4-bb51-bbaaca3b8019}, !- Day Schedule Name
  Yes,                                    !- Apply Sunday
  Yes,                                    !- Apply Monday
  Yes,                                    !- Apply Tuesday
  Yes,                                    !- Apply Wednesday
  Yes,                                    !- Apply Thursday
  Yes,                                    !- Apply Friday
  Yes,                                    !- Apply Saturday
  DateRange,                              !- Date Specification Type
  1,                                      !- Start Month
  1,                                      !- Start Day
  12,                                     !- End Month
  31;                                     !- End Day

OS:Schedule:Day,
  {53e333f7-b248-40d4-bb51-bbaaca3b8019}, !- Handle
  heating setpoint day,                   !- Name
  {0b774bce-0dfc-466c-952b-15c10feb7034}, !- Schedule Type Limits Name
  ,                                       !- Interpolate to Timestep
  24,                                     !- Hour 1
  0,                                      !- Minute 1
  20;                                     !- Value Until Time 1

OS:Schedule:Ruleset,
  {fc45b8e3-80df-49d5-99b9-d742ff1690a7}, !- Handle
  cooling setpoint,                       !- Name
  {0b774bce-0dfc-466c-952b-15c10feb7034}, !- Schedule Type Limits Name
  {b7e912d4-bbec-4c36-b98e-3d12c5ca4328}; !- Default Day Schedule Name

OS:Schedule:Day,
  {b7e912d4-bbec-4c36-b98e-3d12c5ca4328}, !- Handle
  cooling setpoint default day,           !- Name
  {0b774bce-0dfc-466c-952b-15c10feb7034}, !- Schedule Type Limits Name
  ,                                       !- Interpolate to Timestep
  24,                                     !- Hour 1
  0,                                      !- Minute 1
  0;                                      !- Value Until Time 1

OS:Schedule:Rule,
  {607a4aab-0b16-49ab-b4ff-81a343b5b929}, !- Handle
  cooling setpoint allday rule,           !- Name
  {fc45b8e3-80df-49d5-99b9-d742ff1690a7}, !- Schedule Ruleset Name
  0,                                      !- Rule Order
  {4067d3d5-59c0-4e3a-84de-08f16c5ca79f}, !- Day Schedule Name
  Yes,                                    !- Apply Sunday
  Yes,                                    !- Apply Monday
  Yes,                                    !- Apply Tuesday
  Yes,                                    !- Apply Wednesday
  Yes,                                    !- Apply Thursday
  Yes,                                    !- Apply Friday
  Yes,                                    !- Apply Saturday
  DateRange,                              !- Date Specification Type
  1,                                      !- Start Month
  1,                                      !- Start Day
  12,                                     !- End Month
  31;                                     !- End Day

OS:Schedule:Day,
  {4067d3d5-59c0-4e3a-84de-08f16c5ca79f}, !- Handle
  cooling setpoint day,                   !- Name
  {0b774bce-0dfc-466c-952b-15c10feb7034}, !- Schedule Type Limits Name
  ,                                       !- Interpolate to Timestep
  24,                                     !- Hour 1
  0,                                      !- Minute 1
  25.5555555555556;                       !- Value Until Time 1

OS:ThermostatSetpoint:DualSetpoint,
  {f042c1ac-7ee7-4331-8419-4c801c824ed0}, !- Handle
  conditioned space temperature setpoint, !- Name
  {1ba797ae-1143-4aea-8fe3-a5f0a1db05a7}, !- Heating Setpoint Temperature Schedule Name
  {fc45b8e3-80df-49d5-99b9-d742ff1690a7}, !- Cooling Setpoint Temperature Schedule Name
  0;                                      !- Temperature Difference Between Cutout And Setpoint {deltaC}

OS:ScheduleTypeLimits,
  {0b774bce-0dfc-466c-952b-15c10feb7034}, !- Handle
  Temperature,                            !- Name
  ,                                       !- Lower Limit Value
  ,                                       !- Upper Limit Value
  Continuous,                             !- Numeric Type
  Temperature;                            !- Unit Type

OS:Surface,
  {87f3e977-97be-48e5-8dca-26b79c307e50}, !- Handle
  Roof1,                                  !- Name
  RoofCeiling,                            !- Surface Type
  {7b930b25-7f89-4519-af83-9c2cd67d1e51}, !- Construction Name
  {48ee392d-911f-48d0-8c71-3adf7b8ffee8}, !- Space Name
  Outdoors,                               !- Outside Boundary Condition
  ,                                       !- Outside Boundary Condition Object
  SunExposed,                             !- Sun Exposure
  WindExposed,                            !- Wind Exposure
  ,                                       !- View Factor to Ground
  ,                                       !- Number of Vertices
  -26.9347048849634, 58.0557891618865, 2.4384, !- X,Y,Z Vertex 1 {m}
  -26.9347048849634, 46.7895631136661, 8.0715130241102, !- X,Y,Z Vertex 2 {m}
  -14.3386812381136, 46.7895631136661, 8.0715130241102, !- X,Y,Z Vertex 3 {m}
  -14.3386812381136, 58.0557891618865, 2.4384; !- X,Y,Z Vertex 4 {m}

OS:AdditionalProperties,
  {36769ae8-13f6-4a64-9c31-b1c769be5669}, !- Handle
  {87f3e977-97be-48e5-8dca-26b79c307e50}, !- Object Name
  Length,                                 !- Feature Name 1
  Double,                                 !- Feature Data Type 1
  41.325536899113608,                     !- Feature Value 1
  Width,                                  !- Feature Name 2
  Double,                                 !- Feature Data Type 2
  41.325536899113601,                     !- Feature Value 2
  Azimuth,                                !- Feature Name 3
  Integer,                                !- Feature Data Type 3
  0,                                      !- Feature Value 3
  Tilt,                                   !- Feature Name 4
  Double,                                 !- Feature Data Type 4
  0.5,                                    !- Feature Value 4
  SurfaceType,                            !- Feature Name 5
  String,                                 !- Feature Data Type 5
  Roof;                                   !- Feature Value 5

OS:ThermalZone,
  {50048b52-7cf4-4606-8963-c1a6cdac17db}, !- Handle
  attic - vented,                         !- Name
  1,                                      !- Multiplier
  ,                                       !- Ceiling Height {m}
  356.390921899745,                       !- Volume {m3}
  ,                                       !- Floor Area {m2}
  ,                                       !- Zone Inside Convection Algorithm
  ,                                       !- Zone Outside Convection Algorithm
  ,                                       !- Zone Conditioning Equipment List Name
  {f779ffe6-42f6-427e-b094-782f51d06fc3}, !- Zone Air Inlet Port List
  {37bea9a7-12f8-4bea-bf52-23b1dfcb7193}, !- Zone Air Exhaust Port List
  {be583e5d-007d-41c9-8163-fb33bb26e08d}, !- Zone Air Node Name
  {da9c1a86-b1f8-4a09-93ef-b2bb67e4d18a}, !- Zone Return Air Port List
  ,                                       !- Primary Daylighting Control Name
  ,                                       !- Fraction of Zone Controlled by Primary Daylighting Control
  ,                                       !- Secondary Daylighting Control Name
  ,                                       !- Fraction of Zone Controlled by Secondary Daylighting Control
  ,                                       !- Illuminance Map Name
  ,                                       !- Group Rendering Name
  ,                                       !- Thermostat Name
  No;                                     !- Use Ideal Air Loads

OS:Node,
  {5ff6b552-8913-442d-8bea-e58d9dcb647d}, !- Handle
  Node 2,                                 !- Name
  {be583e5d-007d-41c9-8163-fb33bb26e08d}, !- Inlet Port
  ;                                       !- Outlet Port

OS:Connection,
  {be583e5d-007d-41c9-8163-fb33bb26e08d}, !- Handle
  {50048b52-7cf4-4606-8963-c1a6cdac17db}, !- Source Object
  11,                                     !- Outlet Port
  {5ff6b552-8913-442d-8bea-e58d9dcb647d}, !- Target Object
  2;                                      !- Inlet Port

OS:PortList,
  {f779ffe6-42f6-427e-b094-782f51d06fc3}, !- Handle
  {50048b52-7cf4-4606-8963-c1a6cdac17db}; !- HVAC Component

OS:PortList,
  {37bea9a7-12f8-4bea-bf52-23b1dfcb7193}, !- Handle
  {50048b52-7cf4-4606-8963-c1a6cdac17db}; !- HVAC Component

OS:PortList,
  {da9c1a86-b1f8-4a09-93ef-b2bb67e4d18a}, !- Handle
  {50048b52-7cf4-4606-8963-c1a6cdac17db}; !- HVAC Component

OS:Sizing:Zone,
  {9d125ac9-fb80-4879-8b9a-e4b529698b77}, !- Handle
  {50048b52-7cf4-4606-8963-c1a6cdac17db}, !- Zone or ZoneList Name
  SupplyAirTemperature,                   !- Zone Cooling Design Supply Air Temperature Input Method
  14,                                     !- Zone Cooling Design Supply Air Temperature {C}
  11.11,                                  !- Zone Cooling Design Supply Air Temperature Difference {deltaC}
  SupplyAirTemperature,                   !- Zone Heating Design Supply Air Temperature Input Method
  40,                                     !- Zone Heating Design Supply Air Temperature {C}
  11.11,                                  !- Zone Heating Design Supply Air Temperature Difference {deltaC}
  0.0085,                                 !- Zone Cooling Design Supply Air Humidity Ratio {kg-H2O/kg-air}
  0.008,                                  !- Zone Heating Design Supply Air Humidity Ratio {kg-H2O/kg-air}
  ,                                       !- Zone Heating Sizing Factor
  ,                                       !- Zone Cooling Sizing Factor
  DesignDay,                              !- Cooling Design Air Flow Method
  ,                                       !- Cooling Design Air Flow Rate {m3/s}
  ,                                       !- Cooling Minimum Air Flow per Zone Floor Area {m3/s-m2}
  ,                                       !- Cooling Minimum Air Flow {m3/s}
  ,                                       !- Cooling Minimum Air Flow Fraction
  DesignDay,                              !- Heating Design Air Flow Method
  ,                                       !- Heating Design Air Flow Rate {m3/s}
  ,                                       !- Heating Maximum Air Flow per Zone Floor Area {m3/s-m2}
  ,                                       !- Heating Maximum Air Flow {m3/s}
  ,                                       !- Heating Maximum Air Flow Fraction
  No,                                     !- Account for Dedicated Outdoor Air System
  NeutralSupplyAir,                       !- Dedicated Outdoor Air System Control Strategy
  autosize,                               !- Dedicated Outdoor Air Low Setpoint Temperature for Design {C}
  autosize,                               !- Dedicated Outdoor Air High Setpoint Temperature for Design {C}
  Sensible Load Only No Latent Load,      !- Zone Load Sizing Method
  HumidityRatioDifference,                !- Zone Latent Cooling Design Supply Air Humidity Ratio Input Method
  ,                                       !- Zone Dehumidification Design Supply Air Humidity Ratio {kgWater/kgDryAir}
  0.005,                                  !- Zone Cooling Design Supply Air Humidity Ratio Difference {kgWater/kgDryAir}
  HumidityRatioDifference,                !- Zone Latent Heating Design Supply Air Humidity Ratio Input Method
  ,                                       !- Zone Humidification Design Supply Air Humidity Ratio {kgWater/kgDryAir}
  0.005,                                  !- Zone Humidification Design Supply Air Humidity Ratio Difference {kgWater/kgDryAir}
  ,                                       !- Zone Humidistat Dehumidification Set Point Schedule Name
  ,                                       !- Zone Humidistat Humidification Set Point Schedule Name
  ,                                       !- Design Zone Air Distribution Effectiveness in Cooling Mode
  ,                                       !- Design Zone Air Distribution Effectiveness in Heating Mode
  ,                                       !- Design Zone Secondary Recirculation Fraction {dimensionless}
  ,                                       !- Design Minimum Zone Ventilation Efficiency {dimensionless}
  Coincident;                             !- Sizing Option

OS:ZoneHVAC:EquipmentList,
  {cc152c83-e08e-4daf-b6b7-355ce0dc7e02}, !- Handle
  Zone HVAC Equipment List 2,             !- Name
  {50048b52-7cf4-4606-8963-c1a6cdac17db}; !- Thermal Zone

OS:AdditionalProperties,
  {15a5c05d-4ef0-4cd9-ad5c-3c46ba1b42a3}, !- Handle
  {50048b52-7cf4-4606-8963-c1a6cdac17db}, !- Object Name
  ObjectType,                             !- Feature Name 1
  String,                                 !- Feature Data Type 1
  attic - vented;                         !- Feature Value 1

OS:Space,
  {48ee392d-911f-48d0-8c71-3adf7b8ffee8}, !- Handle
  attic - vented 1,                       !- Name
  ,                                       !- Space Type Name
  ,                                       !- Default Construction Set Name
  ,                                       !- Default Schedule Set Name
  ,                                       !- Direction of Relative North {deg}
  ,                                       !- X Origin {m}
  ,                                       !- Y Origin {m}
  ,                                       !- Z Origin {m}
  ,                                       !- Building Story Name
  {50048b52-7cf4-4606-8963-c1a6cdac17db}, !- Thermal Zone Name
  ,                                       !- Part of Total Floor Area
  ,                                       !- Design Specification Outdoor Air Object Name
  ,                                       !- Building Unit Name
  356.390921899745;                       !- Volume {m3}

OS:Material,