
OS:Version,
  {c439e89c-1bb0-4fe4-a939-498cdaebfe99}, !- Handle
  3.9.0;                                  !- Version Identifier

OS:SimulationControl,
  {dead2ff4-7fd4-4fed-9638-35e158597bc6}, !- Handle
  ,                                       !- Do Zone Sizing Calculation
  ,                                       !- Do System Sizing Calculation
  ,                                       !- Do Plant Sizing Calculation
  No;                                     !- Run Simulation for Sizing Periods

OS:Timestep,
  {51ecf012-50fa-4cf5-ab4b-cd52dc9356e4}, !- Handle
  1;                                      !- Number of Timesteps per Hour

OS:ShadowCalculation,
  {ef704415-79fb-4f41-aa4a-77232fdd0592}, !- Handle
  PolygonClipping,                        !- Shading Calculation Method
  ,                                       !- Shading Calculation Update Frequency Method
  20,                                     !- Shading Calculation Update Frequency
  200,                                    !- Maximum Figures in Shadow Overlap Calculations
  ,                                       !- Polygon Clipping Algorithm
  512,                                    !- Pixel Counting Resolution
  ,                                       !- Sky Diffuse Modeling Algorithm
  No,                                     !- Output External Shading Calculation Results
  No,                                     !- Disable Self-Shading Within Shading Zone Groups
  No;                                     !- Disable Self-Shading From Shading Zone Groups to Other Zones

OS:SurfaceConvectionAlgorithm:Outside,
  {f3e51067-7a11-458d-8ba5-06b3d2e1f2cd}, !- Handle
  DOE-2;                                  !- Algorithm

OS:SurfaceConvectionAlgorithm:Inside,
  {a8eaf972-1e53-4e6b-9fbd-b699d714e6df}, !- Handle
  TARP;                                   !- Algorithm

OS:ZoneCapacitanceMultiplier:ResearchSpecial,
  {4a5dc655-bbfb-47b9-9306-e06e4a9bf5e5}, !- Handle
  7,                                      !- Temperature Capacity Multiplier
  15,                                     !- Humidity Capacity Multiplier
  ;                                       !- Carbon Dioxide Capacity Multiplier

OS:ConvergenceLimits,
  {6650a329-60a4-4982-a36b-ac2daa661d8d}, !- Handle
  0;                                      !- Minimum System Timestep {minutes}

OS:RunPeriod,
  {d90f5164-44e8-4c1f-84b0-10e826ea8b12}, !- Handle
  Run Period 1,                           !- Name
  1,                                      !- Begin Month
  1,                                      !- Begin Day of Month
  12,                                     !- End Month
  31,                                     !- End Day of Month
  ,                                       !- Use Weather File Holidays and Special Days
  ,                                       !- Use Weather File Daylight Saving Period
  ,                                       !- Apply Weekend Holiday Rule
  ,                                       !- Use Weather File Rain Indicators
  ,                                       !- Use Weather File Snow Indicators
  ;                                       !- Number of Times Runperiod to be Repeated

OS:PerformancePrecisionTradeoffs,
  {f0388b00-2c5c-4dab-8fbf-1ab01ea3bbf5}, !- Handle
  ,                                       !- Use Coil Direct Solutions
  CarrollMRT;                             !- Zone Radiant Exchange Algorithm

OS:WeatherFile,
  {259b5480-9445-4354-9353-b631ff0c9c3f}, !- Handle
  Buffalo Niagara Intl Ap,                !- City
  NY,                                     !- State Province Region
  USA,                                    !- Country
  TMY3,                                   !- Data Source
  725280,                                 !- WMO Number
  42.93,                                  !- Latitude {deg}
  -78.73,                                 !- Longitude {deg}
  -5,                                     !- Time Zone {hr}
  215,                                    !- Elevation {m}
  /Users/nmoore/github/urbanopt-example-geojson-project/example_project/weather/USA_NY_Buffalo-Greater.Buffalo.Intl.AP.725280_TMY3.epw, !- Url
  6B50E0FF,                               !- Checksum
  ,                                       !- Start Date Actual Year
  Sunday;                                 !- Start Day of Week

OS:YearDescription,
  {26e650bd-79bc-4b70-8044-44269a96acfb}, !- Handle
  2007,                                   !- Calendar Year
  ,                                       !- Day of Week for Start Day
  ;                                       !- Is Leap Year

OS:Site,
  {804c7ce2-a7bd-4442-96e8-4111a5c8fba7}, !- Handle
  Buffalo Niagara Intl Ap_NY,             !- Name
  42.93,                                  !- Latitude {deg}
  -78.73,                                 !- Longitude {deg}
  -5,                                     !- Time Zone {hr}
  215,                                    !- Elevation {m}
  Suburbs,                                !- Terrain
  Yes;                                    !- Keep Site Location Information

OS:RunPeriodControl:DaylightSavingTime,
  {4cd7fc2c-76a6-412d-9740-65f2053d24a7}, !- Handle
  Mar 12,                                 !- Start Date
  Nov 5;                                  !- End Date

OS:Site:GroundTemperature:Shallow,
  {1bab918a-51f3-4fe4-97b2-69287182a92d}, !- Handle
  4.30207395723828,                       !- January Surface Ground Temperature {C}
  2.29327249652502,                       !- February Surface Ground Temperature {C}
  2.13240047156047,                       !- March Surface Ground Temperature {C}
  3.08567940719286,                       !- April Surface Ground Temperature {C}
  6.91256312497526,                       !- May Surface Ground Temperature {C}
  10.7216195949507,                       !- June Surface Ground Temperature {C}
  14.0238679822574,                       !- July Surface Ground Temperature {C}
  16.1157611184724,                       !- August Surface Ground Temperature {C}
  16.2934789303462,                       !- September Surface Ground Temperature {C}
  14.5920754632847,                       !- October Surface Ground Temperature {C}
  11.374036348653,                        !- November Surface Ground Temperature {C}
  7.68182621661674;                       !- December Surface Ground Temperature {C}

OS:ThermalZone,
  {d1392266-7fd0-4ff1-b2f3-26e941c72949}, !- Handle
  conditioned space,                      !- Name
  1,                                      !- Multiplier
  ,                                       !- Ceiling Height {m}
  692.06373070848,                        !- Volume {m3}
  ,                                       !- Floor Area {m2}
  ,                                       !- Zone Inside Convection Algorithm
  ,                                       !- Zone Outside Convection Algorithm
  ,                                       !- Zone Conditioning Equipment List Name
  {0ba8ebef-5670-4e48-bd8d-329a9140a9f0}, !- Zone Air Inlet Port List
  {6c4c00df-294f-465a-9ead-55a200ef5dbd}, !- Zone Air Exhaust Port List
  {3636d899-0e22-4e75-8433-41f4ad3a1575}, !- Zone Air Node Name
  {3e4f3dc5-93f7-4918-9667-47513c5db63c}, !- Zone Return Air Port List
  ,                                       !- Primary Daylighting Control Name
  ,                                       !- Fraction of Zone Controlled by Primary Daylighting Control
  ,                                       !- Secondary Daylighting Control Name
  ,                                       !- Fraction of Zone Controlled by Secondary Daylighting Control
  ,                                       !- Illuminance Map Name
  ,                                       !- Group Rendering Name
  {79d632ff-8a05-4ea2-a20d-4e634eff2041}, !- Thermostat Name
  No;                                     !- Use Ideal Air Loads

OS:Node,
  {2452d12a-cdd2-429c-a6d2-5c0a69db7ee6}, !- Handle
  Node 1,                                 !- Name
  {3636d899-0e22-4e75-8433-41f4ad3a1575}, !- Inlet Port
  ;                                       !- Outlet Port

OS:Connection,
  {3636d899-0e22-4e75-8433-41f4ad3a1575}, !- Handle
  {d1392266-7fd0-4ff1-b2f3-26e941c72949}, !- Source Object
  11,                                     !- Outlet Port
  {2452d12a-cdd2-429c-a6d2-5c0a69db7ee6}, !- Target Object
  2;                                      !- Inlet Port

OS:PortList,
  {0ba8ebef-5670-4e48-bd8d-329a9140a9f0}, !- Handle
  {d1392266-7fd0-4ff1-b2f3-26e941c72949}, !- HVAC Component
  {880eb6a2-46e1-493a-a2ae-bae9eafeed6a}, !- Port 1
  {c7fbc9ca-cfa6-40b2-9d0d-6f18caf3feb3}; !- Port 2

OS:PortList,
  {6c4c00df-294f-465a-9ead-55a200ef5dbd}, !- Handle
  {d1392266-7fd0-4ff1-b2f3-26e941c72949}; !- HVAC Component

OS:PortList,
  {3e4f3dc5-93f7-4918-9667-47513c5db63c}, !- Handle
  {d1392266-7fd0-4ff1-b2f3-26e941c72949}, !- HVAC Component
  {302721a4-2e4e-481d-9079-882e2e87246d}, !- Port 1
  {a33accc4-ba50-4dd6-8907-b7448e1aa0e9}; !- Port 2

OS:Sizing:Zone,
  {197ac57f-8ff5-4359-8277-02d0d258ce97}, !- Handle
  {d1392266-7fd0-4ff1-b2f3-26e941c72949}, !- Zone or ZoneList Name
  SupplyAirTemperature,                   !- Zone Cooling Design Supply Air Temperature Input Method
  14,                                     !- Zone Cooling Design Supply Air Temperature {C}
  11.11,                                  !- Zone Cooling Design Supply Air Temperature Difference {deltaC}
  SupplyAirTemperature,                   !- Zone Heating Design Supply Air Temperature Input Method
  40,                                     !- Zone Heating Design Supply Air Temperature {C}
  11.11,                                  !- Zone Heating Design Supply Air Temperature Difference {deltaC}
  0.0085,                                 !- Zone Cooling Design Supply Air Humidity Ratio {kg-H2O/kg-air}
  0.008,                                  !- Zone Heating Design Supply Air Humidity Ratio {kg-H2O/kg-air}
  ,                                       !- Zone Heating Sizing Factor
  ,                                       !- Zone Cooling Sizing Factor
  DesignDay,                              !- Cooling Design Air Flow Method
  ,                                       !- Cooling Design Air Flow Rate {m3/s}
  ,                                       !- Cooling Minimum Air Flow per Zone Floor Area {m3/s-m2}
  ,                                       !- Cooling Minimum Air Flow {m3/s}
  ,                                       !- Cooling Minimum Air Flow Fraction
  DesignDay,                              !- Heating Design Air Flow Method
  ,                                       !- Heating Design Air Flow Rate {m3/s}
  ,                                       !- Heating Maximum Air Flow per Zone Floor Area {m3/s-m2}
  ,                                       !- Heating Maximum Air Flow {m3/s}
  ,                                       !- Heating Maximum Air Flow Fraction
  No,                                     !- Account for Dedicated Outdoor Air System
  NeutralSupplyAir,                       !- Dedicated Outdoor Air System Control Strategy
  autosize,                               !- Dedicated Outdoor Air Low Setpoint Temperature for Design {C}
  autosize,                               !- Dedicated Outdoor Air High Setpoint Temperature for Design {C}
  Sensible Load Only No Latent Load,      !- Zone Load Sizing Method
  HumidityRatioDifference,                !- Zone Latent Cooling Design Supply Air Humidity Ratio Input Method
  ,                                       !- Zone Dehumidification Design Supply Air Humidity Ratio {kgWater/kgDryAir}
  0.005,                                  !- Zone Cooling Design Supply Air Humidity Ratio Difference {kgWater/kgDryAir}
  HumidityRatioDifference,                !- Zone Latent Heating Design Supply Air Humidity Ratio Input Method
  ,                                       !- Zone Humidification Design Supply Air Humidity Ratio {kgWater/kgDryAir}
  0.005,                                  !- Zone Humidification Design Supply Air Humidity Ratio Difference {kgWater/kgDryAir}
  ,                                       !- Zone Humidistat Dehumidification Set Point Schedule Name
  ,                                       !- Zone Humidistat Humidification Set Point Schedule Name
  ,                                       !- Design Zone Air Distribution Effectiveness in Cooling Mode
  ,                                       !- Design Zone Air Distribution Effectiveness in Heating Mode
  ,                                       !- Design Zone Secondary Recirculation Fraction {dimensionless}
  ,                                       !- Design Minimum Zone Ventilation Efficiency {dimensionless}
  Coincident;                             !- Sizing Option

OS:ZoneHVAC:EquipmentList,
  {82f20f31-dc97-4307-b606-bb3c6f0184ec}, !- Handle
  Zone HVAC Equipment List 1,             !- Name
  {d1392266-7fd0-4ff1-b2f3-26e941c72949}, !- Thermal Zone
  ,                                       !- Load Distribution Scheme
  {d89386cb-5ff4-4373-b9db-dafb0cb86294}, !- Zone Equipment 1
  1,                                      !- Zone Equipment Cooling Sequence 1
  1,                                      !- Zone Equipment Heating or No-Load Sequence 1
  {2c5c8997-9503-47ea-9fbf-183a1ead8665}, !- Zone Equipment Sequential Cooling Fraction Schedule Name 1
  {2accceb3-089d-4369-adf1-6de8e6afc896}, !- Zone Equipment Sequential Heating Fraction Schedule Name 1
  {270e3b00-a55d-4d55-a7db-4f9cb3fddb4f}, !- Zone Equipment 2
  2,                                      !- Zone Equipment Cooling Sequence 2
  2,                                      !- Zone Equipment Heating or No-Load Sequence 2
  {372bdd28-ffe2-436b-b1a1-b6f750f40284}, !- Zone Equipment Sequential Cooling Fraction Schedule Name 2
  {f19a3983-39fc-4953-a100-e6351b680174}; !- Zone Equipment Sequential Heating Fraction Schedule Name 2

OS:AdditionalProperties,
  {b885f0b8-dbb1-423a-9c4c-18072e5760aa}, !- Handle
  {d1392266-7fd0-4ff1-b2f3-26e941c72949}, !- Object Name
  ObjectType,                             !- Feature Name 1
  String,                                 !- Feature Data Type 1
  conditioned space;                      !- Feature Value 1

OS:Space,
  {103517e1-bb65-4b22-95a1-78e436d0b183}, !- Handle
  conditioned space 1,                    !- Name
  ,                                       !- Space Type Name
  ,                                       !- Default Construction Set Name
  ,                                       !- Default Schedule Set Name
  ,                                       !- Direction of Relative North {deg}
  ,                                       !- X Origin {m}
  ,                                       !- Y Origin {m}
  ,                                       !- Z Origin {m}
  ,                                       !- Building Story Name
  {d1392266-7fd0-4ff1-b2f3-26e941c72949}, !- Thermal Zone Name
  ,                                       !- Part of Total Floor Area
  ,                                       !- Design Specification Outdoor Air Object Name
  ,                                       !- Building Unit Name
  692.06373070848;                        !- Volume {m3}

OS:Schedule:Ruleset,
  {a4308255-691b-4ad4-a990-a56b605e98d5}, !- Handle
  heating setpoint,                       !- Name
  {e9da8212-d144-45f1-a64b-52fd783f7037}, !- Schedule Type Limits Name
  {605cfee6-82eb-4327-83b0-2b40928141a8}; !- Default Day Schedule Name

OS:Schedule:Day,
  {605cfee6-82eb-4327-83b0-2b40928141a8}, !- Handle
  heating setpoint default day,           !- Name
  {e9da8212-d144-45f1-a64b-52fd783f7037}, !- Schedule Type Limits Name
  ,                                       !- Interpolate to Timestep
  24,                                     !- Hour 1
  0,                                      !- Minute 1
  0;                                      !- Value Until Time 1

OS:Schedule:Rule,
  {5f69c96e-18ba-4464-8883-63c760ddecf1}, !- Handle
  heating setpoint allday rule,           !- Name
  {a4308255-691b-4ad4-a990-a56b605e98d5}, !- Schedule Ruleset Name
  0,                                      !- Rule Order
  {d2b20665-c310-4461-97af-30e813520fab}, !- Day Schedule Name
  Yes,                                    !- Apply Sunday
  Yes,                                    !- Apply Monday
  Yes,                                    !- Apply Tuesday
  Yes,                                    !- Apply Wednesday
  Yes,                                    !- Apply Thursday
  Yes,                                    !- Apply Friday
  Yes,                                    !- Apply Saturday
  DateRange,                              !- Date Specification Type
  1,                                      !- Start Month
  1,                                      !- Start Day
  12,                                     !- End Month
  31;                                     !- End Day

OS:Schedule:Day,
  {d2b20665-c310-4461-97af-30e813520fab}, !- Handle
  heating setpoint day,                   !- Name
  {e9da8212-d144-45f1-a64b-52fd783f7037}, !- Schedule Type Limits Name
  ,                                       !- Interpolate to Timestep
  24,                                     !- Hour 1
  0,                                      !- Minute 1
  20;                                     !- Value Until Time 1

OS:Schedule:Ruleset,
  {ea804008-7a3d-44c1-bab7-58e506c04260}, !- Handle
  cooling setpoint,                       !- Name
  {e9da8212-d144-45f1-a64b-52fd783f7037}, !- Schedule Type Limits Name
  {a27379ba-3d54-4565-8718-289270ce7a3a}; !- Default Day Schedule Name

OS:Schedule:Day,
  {a27379ba-3d54-4565-8718-289270ce7a3a}, !- Handle
  cooling setpoint default day,           !- Name
  {e9da8212-d144-45f1-a64b-52fd783f7037}, !- Schedule Type Limits Name
  ,                                       !- Interpolate to Timestep
  24,                                     !- Hour 1
  0,                                      !- Minute 1
  0;                                      !- Value Until Time 1

OS:Schedule:Rule,
  {c845226d-dac1-40d8-a639-c37c822a7f6d}, !- Handle
  cooling setpoint allday rule,           !- Name
  {ea804008-7a3d-44c1-bab7-58e506c04260}, !- Schedule Ruleset Name
  0,                                      !- Rule Order
  {59bd1f59-db6e-426f-a2cf-1f738f5d13f4}, !- Day Schedule Name
  Yes,                                    !- Apply Sunday
  Yes,                                    !- Apply Monday
  Yes,                                    !- Apply Tuesday
  Yes,                                    !- Apply Wednesday
  Yes,                                    !- Apply Thursday
  Yes,                                    !- Apply Friday
  Yes,                                    !- Apply Saturday
  DateRange,                              !- Date Specification Type
  1,                                      !- Start Month
  1,                                      !- Start Day
  12,                                     !- End Month
  31;                                     !- End Day

OS:Schedule:Day,
  {59bd1f59-db6e-426f-a2cf-1f738f5d13f4}, !- Handle
  cooling setpoint day,                   !- Name
  {e9da8212-d144-45f1-a64b-52fd783f7037}, !- Schedule Type Limits Name
  ,                                       !- Interpolate to Timestep
  24,                                     !- Hour 1
  0,                                      !- Minute 1
  25.5555555555556;                       !- Value Until Time 1

OS:ThermostatSetpoint:DualSetpoint,
  {79d632ff-8a05-4ea2-a20d-4e634eff2041}, !- Handle
  conditioned space temperature setpoint, !- Name
  {a4308255-691b-4ad4-a990-a56b605e98d5}, !- Heating Setpoint Temperature Schedule Name
  {ea804008-7a3d-44c1-bab7-58e506c04260}, !- Cooling Setpoint Temperature Schedule Name
  0;                                      !- Temperature Difference Between Cutout And Setpoint {deltaC}

OS:ScheduleTypeLimits,
  {e9da8212-d144-45f1-a64b-52fd783f7037}, !- Handle
  Temperature,                            !- Name
  ,                                       !- Lower Limit Value
  ,                                       !- Upper Limit Value
  Continuous,                             !- Numeric Type
  Temperature;                            !- Unit Type

OS:Surface,
  {4d79a7e6-0bf0-43ad-99de-90f460a2db08}, !- Handle
  Roof1,                                  !- Name
  RoofCeiling,                            !- Surface Type
  {1bd8a8b0-37b2-4532-bb40-07a6de6542da}, !- Construction Name
  {860d7168-b9ee-4f27-bd6b-22aabdebd2dc}, !- Space Name
  Outdoors,                               !- Outside Boundary Condition
  ,                                       !- Outside Boundary Condition Object
  SunExposed,                             !- Sun Exposure
  WindExposed,                            !- Wind Exposure
  ,                                       !- View Factor to Ground
  ,                                       !- Number of Vertices
  -26.9347048849634, 58.0557891618865, 2.4384, !- X,Y,Z Vertex 1 {m}
  -26.9347048849634, 46.7895631136661, 8.0715130241102, !- X,Y,Z Vertex 2 {m}
  -14.3386812381136, 46.7895631136661, 8.0715130241102, !- X,Y,Z Vertex 3 {m}
  -14.3386812381136, 58.0557891618865, 2.4384; !- X,Y,Z Vertex 4 {m}

OS:AdditionalProperties,
  {7afbceb2-8b31-4e27-b685-a65dd2ae1e83}, !- Handle
  {4d79a7e6-0bf0-43ad-99de-90f460a2db08}, !- Object Name
  Length,                                 !- Feature Name 1
  Double,                                 !- Feature Data Type 1
  41.325536899113608,                     !- Feature Value 1
  Width,                                  !- Feature Name 2
  Double,                                 !- Feature Data Type 2
  41.325536899113601,                     !- Feature Value 2
  Azimuth,                                !- Feature Name 3
  Integer,                                !- Feature Data Type 3
  0,                                      !- Feature Value 3
  Tilt,                                   !- Feature Name 4
  Double,                                 !- Feature Data Type 4
  0.5,                                    !- Feature Value 4
  SurfaceType,                            !- Feature Name 5
  String,                                 !- Feature Data Type 5
  Roof;                                   !- Feature Value 5

OS:ThermalZone,
  {35fe625f-0666-40d1-9320-ee4839f93dd5}, !- Handle
  attic - vented,                         !- Name
  1,                                      !- Multiplier
  ,                                       !- Ceiling Height {m}
  356.389957095237,                       !- Volume {m3}
  ,                                       !- Floor Area {m2}
  ,                                       !- Zone Inside Convection Algorithm
  ,                                       !- Zone Outside Convection Algorithm
  ,                                       !- Zone Conditioning Equipment List Name
  {5c32055d-233d-4714-ab28-7424b7e2a16a}, !- Zone Air Inlet Port List
  {87a342e8-d686-4729-808c-d560feed3152}, !- Zone Air Exhaust Port List
  {432aec02-1863-4a6a-9973-bea13627db83}, !- Zone Air Node Name
  {04c961d2-84c9-47ba-bc46-67993c8a489a}, !- Zone Return Air Port List
  ,                                       !- Primary Daylighting Control Name
  ,                                       !- Fraction of Zone Controlled by Primary Daylighting Control
  ,                                       !- Secondary Daylighting Control Name
  ,                                       !- Fraction of Zone Controlled by Secondary Daylighting Control
  ,                                       !- Illuminance Map Name
  ,                                       !- Group Rendering Name
  ,                                       !- Thermostat Name
  No;                                     !- Use Ideal Air Loads

OS:Node,
  {1a191374-407e-456b-9373-17ecfc9215dc}, !- Handle
  Node 2,                                 !- Name
  {432aec02-1863-4a6a-9973-bea13627db83}, !- Inlet Port
  ;                                       !- Outlet Port

OS:Connection,
  {432aec02-1863-4a6a-9973-bea13627db83}, !- Handle
  {35fe625f-0666-40d1-9320-ee4839f93dd5}, !- Source Object
  11,                                     !- Outlet Port
  {1a191374-407e-456b-9373-17ecfc9215dc}, !- Target Object
  2;                                      !- Inlet Port

OS:PortList,
  {5c32055d-233d-4714-ab28-7424b7e2a16a}, !- Handle
  {35fe625f-0666-40d1-9320-ee4839f93dd5}; !- HVAC Component

OS:PortList,
  {87a342e8-d686-4729-808c-d560feed3152}, !- Handle
  {35fe625f-0666-40d1-9320-ee4839f93dd5}; !- HVAC Component

OS:PortList,
  {04c961d2-84c9-47ba-bc46-67993c8a489a}, !- Handle
  {35fe625f-0666-40d1-9320-ee4839f93dd5}; !- HVAC Component

OS:Sizing:Zone,
  {8c68a59f-a2ec-460a-b733-5a6799ba5bff}, !- Handle
  {35fe625f-0666-40d1-9320-ee4839f93dd5}, !- Zone or ZoneList Name
  SupplyAirTemperature,                   !- Zone Cooling Design Supply Air Temperature Input Method
  14,                                     !- Zone Cooling Design Supply Air Temperature {C}
  11.11,                                  !- Zone Cooling Design Supply Air Temperature Difference {deltaC}
  SupplyAirTemperature,                   !- Zone Heating Design Supply Air Temperature Input Method
  40,                                     !- Zone Heating Design Supply Air Temperature {C}
  11.11,                                  !- Zone Heating Design Supply Air Temperature Difference {deltaC}
  0.0085,                                 !- Zone Cooling Design Supply Air Humidity Ratio {kg-H2O/kg-air}
  0.008,                                  !- Zone Heating Design Supply Air Humidity Ratio {kg-H2O/kg-air}
  ,                                       !- Zone Heating Sizing Factor
  ,                                       !- Zone Cooling Sizing Factor
  DesignDay,                              !- Cooling Design Air Flow Method
  ,                                       !- Cooling Design Air Flow Rate {m3/s}
  ,                                       !- Cooling Minimum Air Flow per Zone Floor Area {m3/s-m2}
  ,                                       !- Cooling Minimum Air Flow {m3/s}
  ,                                       !- Cooling Minimum Air Flow Fraction
  DesignDay,                              !- Heating Design Air Flow Method
  ,                                       !- Heating Design Air Flow Rate {m3/s}
  ,                                       !- Heating Maximum Air Flow per Zone Floor Area {m3/s-m2}
  ,                                       !- Heating Maximum Air Flow {m3/s}
  ,                                       !- Heating Maximum Air Flow Fraction
  No,                                     !- Account for Dedicated Outdoor Air System
  NeutralSupplyAir,                       !- Dedicated Outdoor Air System Control Strategy
  autosize,                               !- Dedicated Outdoor Air Low Setpoint Temperature for Design {C}
  autosize,                               !- Dedicated Outdoor Air High Setpoint Temperature for Design {C}
  Sensible Load Only No Latent Load,      !- Zone Load Sizing Method
  HumidityRatioDifference,                !- Zone Latent Cooling Design Supply Air Humidity Ratio Input Method
  ,                                       !- Zone Dehumidification Design Supply Air Humidity Ratio {kgWater/kgDryAir}
  0.005,                                  !- Zone Cooling Design Supply Air Humidity Ratio Difference {kgWater/kgDryAir}
  HumidityRatioDifference,                !- Zone Latent Heating Design Supply Air Humidity Ratio Input Method
  ,                                       !- Zone Humidification Design Supply Air Humidity Ratio {kgWater/kgDryAir}
  0.005,                                  !- Zone Humidification Design Supply Air Humidity Ratio Difference {kgWater/kgDryAir}
  ,                                       !- Zone Humidistat Dehumidification Set Point Schedule Name
  ,                                       !- Zone Humidistat Humidification Set Point Schedule Name
  ,                                       !- Design Zone Air Distribution Effectiveness in Cooling Mode
  ,                                       !- Design Zone Air Distribution Effectiveness in Heating Mode
  ,                                       !- Design Zone Secondary Recirculation Fraction {dimensionless}
  ,                                       !- Design Minimum Zone Ventilation Efficiency {dimensionless}
  Coincident;                             !- Sizing Option

OS:ZoneHVAC:EquipmentList,
  {90e1ea6a-23ca-4b31-8255-03c2dee7d660}, !- Handle
  Zone HVAC Equipment List 2,             !- Name
  {35fe625f-0666-40d1-9320-ee4839f93dd5}; !- Thermal Zone

OS:AdditionalProperties,
  {9a97c036-207d-482e-9494-b6da38036af8}, !- Handle
  {35fe625f-0666-40d1-9320-ee4839f93dd5}, !- Object Name
  ObjectType,                             !- Feature Name 1
  String,                                 !- Feature Data Type 1
  attic - vented;                         !- Feature Value 1

OS:Space,
  {860d7168-b9ee-4f27-bd6b-22aabdebd2dc}, !- Handle
  attic - vented 1,                       !- Name
  ,                                       !- Space Type Name
  ,                                       !- Default Construction Set Name
  ,                                       !- Default Schedule Set Name
  ,                                       !- Direction of Relative North {deg}
  ,                                       !- X Origin {m}
  ,                                       !- Y Origin {m}
  ,                                       !- Z Origin {m}
  ,                                       !- Building Story Name
  {35fe625f-0666-40d1-9320-ee4839f93dd5}, !- Thermal Zone Name
  ,                                       !- Part of Total Floor Area
  ,                                       !- Design Specification Outdoor Air Object Name
  ,                                       !- Building Unit Name
  356.389957095237;                       !- Volume {m3}

OS:Material,