
OS:Version,
  {8d543c3c-3451-4d0a-ac16-79798322820e}, !- Handle
  3.10.0;                                 !- Version Identifier

OS:SimulationControl,
  {fdc70feb-aa80-44f2-a026-a5871b7c9b24}, !- Handle
  ,                                       !- Do Zone Sizing Calculation
  ,                                       !- Do System Sizing Calculation
  ,                                       !- Do Plant Sizing Calculation
  No;                                     !- Run Simulation for Sizing Periods

OS:Timestep,
  {d1e07ae6-740b-4eb1-957c-500cf2b5a616}, !- Handle
  1;                                      !- Number of Timesteps per Hour

OS:ShadowCalculation,
  {681c2464-9433-4254-a285-40d90b307c10}, !- Handle
  PolygonClipping,                        !- Shading Calculation Method
  ,                                       !- Shading Calculation Update Frequency Method
  20,                                     !- Shading Calculation Update Frequency
  200,                                    !- Maximum Figures in Shadow Overlap Calculations
  ,                                       !- Polygon Clipping Algorithm
  512,                                    !- Pixel Counting Resolution
  ,                                       !- Sky Diffuse Modeling Algorithm
  No,                                     !- Output External Shading Calculation Results
  No,                                     !- Disable Self-Shading Within Shading Zone Groups
  No;                                     !- Disable Self-Shading From Shading Zone Groups to Other Zones

OS:SurfaceConvectionAlgorithm:Outside,
  {ec607a8f-ad7e-4e1c-8707-863fd2f54a33}, !- Handle
  DOE-2;                                  !- Algorithm

OS:SurfaceConvectionAlgorithm:Inside,
  {26662189-0068-45db-9efe-65b6de42916d}, !- Handle
  TARP;                                   !- Algorithm

OS:ZoneCapacitanceMultiplier:ResearchSpecial,
  {81fa66b5-3f7b-4480-9089-5e3d4896640c}, !- Handle
  7,                                      !- Temperature Capacity Multiplier
  15,                                     !- Humidity Capacity Multiplier
  ;                                       !- Carbon Dioxide Capacity Multiplier

OS:ConvergenceLimits,
  {4384e88d-e790-4242-a5b7-99fad46aa1c3}, !- Handle
  0;                                      !- Minimum System Timestep {minutes}

OS:RunPeriod,
  {6dd299f1-2f33-4743-a6f3-a639cfa77f99}, !- Handle
  Run Period 1,                           !- Name
  1,                                      !- Begin Month
  1,                                      !- Begin Day of Month
  12,                                     !- End Month
  31,                                     !- End Day of Month
  ,                                       !- Use Weather File Holidays and Special Days
  ,                                       !- Use Weather File Daylight Saving Period
  ,                                       !- Apply Weekend Holiday Rule
  ,                                       !- Use Weather File Rain Indicators
  ,                                       !- Use Weather File Snow Indicators
  ;                                       !- Number of Times Runperiod to be Repeated

OS:PerformancePrecisionTradeoffs,
  {d821b93c-9c73-490c-b9f3-b0a0c62727ed}, !- Handle
  ,                                       !- Use Coil Direct Solutions
  CarrollMRT;                             !- Zone Radiant Exchange Algorithm

OS:WeatherFile,
  {e44e1599-f9b8-4bcb-a8af-f6d720339af2}, !- Handle
  Buffalo Niagara Intl Ap,                !- City
  NY,                                     !- State Province Region
  USA,                                    !- Country
  TMY3,                                   !- Data Source
  725280,                                 !- WMO Number
  42.93,                                  !- Latitude {deg}
  -78.73,                                 !- Longitude {deg}
  -5,                                     !- Time Zone {hr}
  215,                                    !- Elevation {m}
  /Users/nmoore/github/urbanopt-example-geojson-project/example_project/weather/USA_NY_Buffalo-Greater.Buffalo.Intl.AP.725280_TMY3.epw, !- Url
  6B50E0FF,                               !- Checksum
  ,                                       !- Start Date Actual Year
  Sunday;                                 !- Start Day of Week

OS:YearDescription,
  {df10f80f-7794-4931-90f6-9e05eb237159}, !- Handle
  2007,                                   !- Calendar Year
  ,                                       !- Day of Week for Start Day
  ;                                       !- Is Leap Year

OS:Site,
  {92125067-59bf-499e-9ad1-fc1d08aae5a9}, !- Handle
  Buffalo Niagara Intl Ap_NY,             !- Name
  42.93,                                  !- Latitude {deg}
  -78.73,                                 !- Longitude {deg}
  -5,                                     !- Time Zone {hr}
  215,                                    !- Elevation {m}
  Suburbs,                                !- Terrain
  Yes;                                    !- Keep Site Location Information

OS:RunPeriodControl:DaylightSavingTime,
  {f36fee0f-b295-408c-9432-e543540a69f1}, !- Handle
  Mar 12,                                 !- Start Date
  Nov 5;                                  !- End Date

OS:Site:GroundTemperature:Shallow,
  {28c7f55b-f88c-4ff9-942c-09a37f48442e}, !- Handle
  4.30207395723828,                       !- January Surface Ground Temperature {C}
  2.29327249652502,                       !- February Surface Ground Temperature {C}
  2.13240047156047,                       !- March Surface Ground Temperature {C}
  3.08567940719286,                       !- April Surface Ground Temperature {C}
  6.91256312497526,                       !- May Surface Ground Temperature {C}
  10.7216195949507,                       !- June Surface Ground Temperature {C}
  14.0238679822574,                       !- July Surface Ground Temperature {C}
  16.1157611184724,                       !- August Surface Ground Temperature {C}
  16.2934789303462,                       !- September Surface Ground Temperature {C}
  14.5920754632847,                       !- October Surface Ground Temperature {C}
  11.374036348653,                        !- November Surface Ground Temperature {C}
  7.68182621661674;                       !- December Surface Ground Temperature {C}

OS:ThermalZone,
  {4e1e398f-f743-4df6-87ab-16c96356dc1c}, !- Handle
  conditioned space,                      !- Name
  1,                                      !- Multiplier
  ,                                       !- Ceiling Height {m}
  692.06373070848,                        !- Volume {m3}
  ,                                       !- Floor Area {m2}
  ,                                       !- Zone Inside Convection Algorithm
  ,                                       !- Zone Outside Convection Algorithm
  ,                                       !- Zone Conditioning Equipment List Name
  {5fab800d-253b-4785-ad53-d6e503b09807}, !- Zone Air Inlet Port List
  {8e7c1d60-fea4-484e-a39c-70dc7dd45657}, !- Zone Air Exhaust Port List
  {f1225336-2075-4a09-ae9f-2f328c660ec0}, !- Zone Air Node Name
  {78fc4e66-3c68-4f7f-af9c-25d7539270a9}, !- Zone Return Air Port List
  ,                                       !- Primary Daylighting Control Name
  ,                                       !- Fraction of Zone Controlled by Primary Daylighting Control
  ,                                       !- Secondary Daylighting Control Name
  ,                                       !- Fraction of Zone Controlled by Secondary Daylighting Control
  ,                                       !- Illuminance Map Name
  ,                                       !- Group Rendering Name
  {0406fc35-5915-4b9b-ad72-9dbd55d5d008}, !- Thermostat Name
  No;                                     !- Use Ideal Air Loads

OS:Node,
  {8b1cc85b-9038-47b5-9a0f-43a964ddf2c8}, !- Handle
  Node 1,                                 !- Name
  {f1225336-2075-4a09-ae9f-2f328c660ec0}, !- Inlet Port
  ;                                       !- Outlet Port

OS:Connection,
  {f1225336-2075-4a09-ae9f-2f328c660ec0}, !- Handle
  {4e1e398f-f743-4df6-87ab-16c96356dc1c}, !- Source Object
  11,                                     !- Outlet Port
  {8b1cc85b-9038-47b5-9a0f-43a964ddf2c8}, !- Target Object
  2;                                      !- Inlet Port

OS:PortList,
  {5fab800d-253b-4785-ad53-d6e503b09807}, !- Handle
  {4e1e398f-f743-4df6-87ab-16c96356dc1c}, !- HVAC Component
  {9349f167-b885-4ab6-9293-55a8dcbd5fb7}; !- Port 1

OS:PortList,
  {8e7c1d60-fea4-484e-a39c-70dc7dd45657}, !- Handle
  {4e1e398f-f743-4df6-87ab-16c96356dc1c}; !- HVAC Component

OS:PortList,
  {78fc4e66-3c68-4f7f-af9c-25d7539270a9}, !- Handle
  {4e1e398f-f743-4df6-87ab-16c96356dc1c}, !- HVAC Component
  {5cbc4943-585e-4ddb-9b68-e70142573100}; !- Port 1

OS:Sizing:Zone,
  {c054a325-4037-48bd-b8fc-8e5a63b6b7c8}, !- Handle
  {4e1e398f-f743-4df6-87ab-16c96356dc1c}, !- Zone or ZoneList Name
  SupplyAirTemperature,                   !- Zone Cooling Design Supply Air Temperature Input Method
  14,                                     !- Zone Cooling Design Supply Air Temperature {C}
  11.11,                                  !- Zone Cooling Design Supply Air Temperature Difference {deltaC}
  SupplyAirTemperature,                   !- Zone Heating Design Supply Air Temperature Input Method
  40,                                     !- Zone Heating Design Supply Air Temperature {C}
  11.11,                                  !- Zone Heating Design Supply Air Temperature Difference {deltaC}
  0.0085,                                 !- Zone Cooling Design Supply Air Humidity Ratio {kg-H2O/kg-air}
  0.008,                                  !- Zone Heating Design Supply Air Humidity Ratio {kg-H2O/kg-air}
  ,                                       !- Zone Heating Sizing Factor
  ,                                       !- Zone Cooling Sizing Factor
  DesignDay,                              !- Cooling Design Air Flow Method
  ,                                       !- Cooling Design Air Flow Rate {m3/s}
  ,                                       !- Cooling Minimum Air Flow per Zone Floor Area {m3/s-m2}
  ,                                       !- Cooling Minimum Air Flow {m3/s}
  ,                                       !- Cooling Minimum Air Flow Fraction
  DesignDay,                              !- Heating Design Air Flow Method
  ,                                       !- Heating Design Air Flow Rate {m3/s}
  ,                                       !- Heating Maximum Air Flow per Zone Floor Area {m3/s-m2}
  ,                                       !- Heating Maximum Air Flow {m3/s}
  ,                                       !- Heating Maximum Air Flow Fraction
  No,                                     !- Account for Dedicated Outdoor Air System
  NeutralSupplyAir,                       !- Dedicated Outdoor Air System Control Strategy
  autosize,                               !- Dedicated Outdoor Air Low Setpoint Temperature for Design {C}
  autosize,                               !- Dedicated Outdoor Air High Setpoint Temperature for Design {C}
  Sensible Load Only No Latent Load,      !- Zone Load Sizing Method
  HumidityRatioDifference,                !- Zone Latent Cooling Design Supply Air Humidity Ratio Input Method
  ,                                       !- Zone Dehumidification Design Supply Air Humidity Ratio {kgWater/kgDryAir}
  0.005,                                  !- Zone Cooling Design Supply Air Humidity Ratio Difference {kgWater/kgDryAir}
  HumidityRatioDifference,                !- Zone Latent Heating Design Supply Air Humidity Ratio Input Method
  ,                                       !- Zone Humidification Design Supply Air Humidity Ratio {kgWater/kgDryAir}
  0.005,                                  !- Zone Humidification Design Supply Air Humidity Ratio Difference {kgWater/kgDryAir}
  ,                                       !- Zone Humidistat Dehumidification Set Point Schedule Name
  ,                                       !- Zone Humidistat Humidification Set Point Schedule Name
  ,                                       !- Design Zone Air Distribution Effectiveness in Cooling Mode
  ,                                       !- Design Zone Air Distribution Effectiveness in Heating Mode
  ,                                       !- Design Zone Secondary Recirculation Fraction {dimensionless}
  ,                                       !- Design Minimum Zone Ventilation Efficiency {dimensionless}
  Coincident;                             !- Sizing Option

OS:ZoneHVAC:EquipmentList,
  {5039c57e-f24f-462e-8683-93b20301be3a}, !- Handle
  Zone HVAC Equipment List 1,             !- Name
  {4e1e398f-f743-4df6-87ab-16c96356dc1c}, !- Thermal Zone
  ,                                       !- Load Distribution Scheme
  {beb7de49-d882-4076-a230-85f775b04592}, !- Zone Equipment 1
  1,                                      !- Zone Equipment Cooling Sequence 1
  1,                                      !- Zone Equipment Heating or No-Load Sequence 1
  {378e8c3f-6b28-420b-aaba-d5b27ea72e0e}, !- Zone Equipment Sequential Cooling Fraction Schedule Name 1
  {4d715c1a-0a9b-47e9-b861-97b498d3be66}; !- Zone Equipment Sequential Heating Fraction Schedule Name 1

OS:AdditionalProperties,
  {989b852f-4626-4893-928a-da570e795039}, !- Handle
  {4e1e398f-f743-4df6-87ab-16c96356dc1c}, !- Object Name
  ObjectType,                             !- Feature Name 1
  String,                                 !- Feature Data Type 1
  conditioned space;                      !- Feature Value 1

OS:Space,
  {83c5dfa6-160e-441d-b2a8-1eb35eab8838}, !- Handle
  conditioned space 1,                    !- Name
  ,                                       !- Space Type Name
  ,                                       !- Default Construction Set Name
  ,                                       !- Default Schedule Set Name
  ,                                       !- Direction of Relative North {deg}
  ,                                       !- X Origin {m}
  ,                                       !- Y Origin {m}
  ,                                       !- Z Origin {m}
  ,                                       !- Building Story Name
  {4e1e398f-f743-4df6-87ab-16c96356dc1c}, !- Thermal Zone Name
  ,                                       !- Part of Total Floor Area
  ,                                       !- Design Specification Outdoor Air Object Name
  ,                                       !- Building Unit Name
  692.06373070848;                        !- Volume {m3}

OS:Schedule:Ruleset,
  {960652e7-2411-4655-b295-89b66da940a5}, !- Handle
  heating setpoint,                       !- Name
  {252496b9-1588-4c2a-b4e3-ed4f1b13e8a5}, !- Schedule Type Limits Name
  {8b61983c-b785-4eeb-b6d4-90c72e1403dc}; !- Default Day Schedule Name

OS:Schedule:Day,
  {8b61983c-b785-4eeb-b6d4-90c72e1403dc}, !- Handle
  heating setpoint default day,           !- Name
  {252496b9-1588-4c2a-b4e3-ed4f1b13e8a5}, !- Schedule Type Limits Name
  ,                                       !- Interpolate to Timestep
  24,                                     !- Hour 1
  0,                                      !- Minute 1
  0;                                      !- Value Until Time 1

OS:Schedule:Rule,
  {f4a225ab-0838-4e6b-a420-f831294fc5f5}, !- Handle
  heating setpoint allday rule,           !- Name
  {960652e7-2411-4655-b295-89b66da940a5}, !- Schedule Ruleset Name
  0,                                      !- Rule Order
  {e5d2a149-b024-4fb6-b2ca-db8216890459}, !- Day Schedule Name
  Yes,                                    !- Apply Sunday
  Yes,                                    !- Apply Monday
  Yes,                                    !- Apply Tuesday
  Yes,                                    !- Apply Wednesday
  Yes,                                    !- Apply Thursday
  Yes,                                    !- Apply Friday
  Yes,                                    !- Apply Saturday
  DateRange,                              !- Date Specification Type
  1,                                      !- Start Month
  1,                                      !- Start Day
  12,                                     !- End Month
  31;                                     !- End Day

OS:Schedule:Day,
  {e5d2a149-b024-4fb6-b2ca-db8216890459}, !- Handle
  heating setpoint day,                   !- Name
  {252496b9-1588-4c2a-b4e3-ed4f1b13e8a5}, !- Schedule Type Limits Name
  ,                                       !- Interpolate to Timestep
  24,                                     !- Hour 1
  0,                                      !- Minute 1
  20;                                     !- Value Until Time 1

OS:Schedule:Ruleset,
  {4612c5d0-30ab-4689-ab5d-150774a5ae81}, !- Handle
  cooling setpoint,                       !- Name
  {252496b9-1588-4c2a-b4e3-ed4f1b13e8a5}, !- Schedule Type Limits Name
  {74fe876c-440e-4407-bf1b-5a8763a3c232}; !- Default Day Schedule Name

OS:Schedule:Day,
  {74fe876c-440e-4407-bf1b-5a8763a3c232}, !- Handle
  cooling setpoint default day,           !- Name
  {252496b9-1588-4c2a-b4e3-ed4f1b13e8a5}, !- Schedule Type Limits Name
  ,                                       !- Interpolate to Timestep
  24,                                     !- Hour 1
  0,                                      !- Minute 1
  0;                                      !- Value Until Time 1

OS:Schedule:Rule,
  {8ff1d10a-57c5-4010-84bc-774cc2df8074}, !- Handle
  cooling setpoint allday rule,           !- Name
  {4612c5d0-30ab-4689-ab5d-150774a5ae81}, !- Schedule Ruleset Name
  0,                                      !- Rule Order
  {ebb72bb9-e87e-47ab-91f7-2ed7e19b2ab7}, !- Day Schedule Name
  Yes,                                    !- Apply Sunday
  Yes,                                    !- Apply Monday
  Yes,                                    !- Apply Tuesday
  Yes,                                    !- Apply Wednesday
  Yes,                                    !- Apply Thursday
  Yes,                                    !- Apply Friday
  Yes,                                    !- Apply Saturday
  DateRange,                              !- Date Specification Type
  1,                                      !- Start Month
  1,                                      !- Start Day
  12,                                     !- End Month
  31;                                     !- End Day

OS:Schedule:Day,
  {ebb72bb9-e87e-47ab-91f7-2ed7e19b2ab7}, !- Handle
  cooling setpoint day,                   !- Name
  {252496b9-1588-4c2a-b4e3-ed4f1b13e8a5}, !- Schedule Type Limits Name
  ,                                       !- Interpolate to Timestep
  24,                                     !- Hour 1
  0,                                      !- Minute 1
  25.5555555555556;                       !- Value Until Time 1

OS:ThermostatSetpoint:DualSetpoint,
  {0406fc35-5915-4b9b-ad72-9dbd55d5d008}, !- Handle
  conditioned space temperature setpoint, !- Name
  {960652e7-2411-4655-b295-89b66da940a5}, !- Heating Setpoint Temperature Schedule Name
  {4612c5d0-30ab-4689-ab5d-150774a5ae81}, !- Cooling Setpoint Temperature Schedule Name
  0;                                      !- Temperature Difference Between Cutout And Setpoint {deltaC}

OS:ScheduleTypeLimits,
  {252496b9-1588-4c2a-b4e3-ed4f1b13e8a5}, !- Handle
  Temperature,                            !- Name
  ,                                       !- Lower Limit Value
  ,                                       !- Upper Limit Value
  Continuous,                             !- Numeric Type
  Temperature;                            !- Unit Type

OS:Surface,
  {c7589efe-5944-42da-b49f-87ce2ef7d5b2}, !- Handle
  Roof1,                                  !- Name
  RoofCeiling,                            !- Surface Type
  {d1b82da6-4dbf-44a7-8ef4-0851812d85e5}, !- Construction Name
  {deadd9ce-2a66-40d3-a9c2-4535977ac873}, !- Space Name
  Outdoors,                               !- Outside Boundary Condition
  ,                                       !- Outside Boundary Condition Object
  SunExposed,                             !- Sun Exposure
  WindExposed,                            !- Wind Exposure
  ,                                       !- View Factor to Ground
  ,                                       !- Number of Vertices
  -26.9347048849634, 58.0557891618865, 2.4384, !- X,Y,Z Vertex 1 {m}
  -26.9347048849634, 46.7895631136661, 8.0715130241102, !- X,Y,Z Vertex 2 {m}
  -14.3386812381136, 46.7895631136661, 8.0715130241102, !- X,Y,Z Vertex 3 {m}
  -14.3386812381136, 58.0557891618865, 2.4384; !- X,Y,Z Vertex 4 {m}

OS:AdditionalProperties,
  {bcc66846-8f0c-46ed-b6e2-c32b14f01a42}, !- Handle
  {c7589efe-5944-42da-b49f-87ce2ef7d5b2}, !- Object Name
  Length,                                 !- Feature Name 1
  Double,                                 !- Feature Data Type 1
  41.325536899113608,                     !- Feature Value 1
  Width,                                  !- Feature Name 2
  Double,                                 !- Feature Data Type 2
  41.325536899113601,                     !- Feature Value 2
  Azimuth,                                !- Feature Name 3
  Integer,                                !- Feature Data Type 3
  0,                                      !- Feature Value 3
  Tilt,                                   !- Feature Name 4
  Double,                                 !- Feature Data Type 4
  0.5,                                    !- Feature Value 4
  SurfaceType,                            !- Feature Name 5
  String,                                 !- Feature Data Type 5
  Roof;                                   !- Feature Value 5

OS:ThermalZone,
  {5f4a88ec-6dfb-4dc6-81b8-da1e98b500b1}, !- Handle
  attic - vented,                         !- Name
  1,                                      !- Multiplier
  ,                                       !- Ceiling Height {m}
  356.390921899745,                       !- Volume {m3}
  ,                                       !- Floor Area {m2}
  ,                                       !- Zone Inside Convection Algorithm
  ,                                       !- Zone Outside Convection Algorithm
  ,                                       !- Zone Conditioning Equipment List Name
  {b685fea3-e1e5-46d0-ba6b-31cc507a8e69}, !- Zone Air Inlet Port List
  {7a3285c1-f943-4f0a-9352-e2272509e7fb}, !- Zone Air Exhaust Port List
  {daadc6ce-e3d8-4f7b-aba5-fa02cacf2ce7}, !- Zone Air Node Name
  {57eaee4b-a0a5-4f72-9ef1-61fa6860b3b6}, !- Zone Return Air Port List
  ,                                       !- Primary Daylighting Control Name
  ,                                       !- Fraction of Zone Controlled by Primary Daylighting Control
  ,                                       !- Secondary Daylighting Control Name
  ,                                       !- Fraction of Zone Controlled by Secondary Daylighting Control
  ,                                       !- Illuminance Map Name
  ,                                       !- Group Rendering Name
  ,                                       !- Thermostat Name
  No;                                     !- Use Ideal Air Loads

OS:Node,
  {30f56361-35e7-4045-ad61-6e518a83c99a}, !- Handle
  Node 2,                                 !- Name
  {daadc6ce-e3d8-4f7b-aba5-fa02cacf2ce7}, !- Inlet Port
  ;                                       !- Outlet Port

OS:Connection,
  {daadc6ce-e3d8-4f7b-aba5-fa02cacf2ce7}, !- Handle
  {5f4a88ec-6dfb-4dc6-81b8-da1e98b500b1}, !- Source Object
  11,                                     !- Outlet Port
  {30f56361-35e7-4045-ad61-6e518a83c99a}, !- Target Object
  2;                                      !- Inlet Port

OS:PortList,
  {b685fea3-e1e5-46d0-ba6b-31cc507a8e69}, !- Handle
  {5f4a88ec-6dfb-4dc6-81b8-da1e98b500b1}; !- HVAC Component

OS:PortList,
  {7a3285c1-f943-4f0a-9352-e2272509e7fb}, !- Handle
  {5f4a88ec-6dfb-4dc6-81b8-da1e98b500b1}; !- HVAC Component

OS:PortList,
  {57eaee4b-a0a5-4f72-9ef1-61fa6860b3b6}, !- Handle
  {5f4a88ec-6dfb-4dc6-81b8-da1e98b500b1}; !- HVAC Component

OS:Sizing:Zone,
  {27968231-e242-41f4-9913-b405ba3abe28}, !- Handle
  {5f4a88ec-6dfb-4dc6-81b8-da1e98b500b1}, !- Zone or ZoneList Name
  SupplyAirTemperature,                   !- Zone Cooling Design Supply Air Temperature Input Method
  14,                                     !- Zone Cooling Design Supply Air Temperature {C}
  11.11,                                  !- Zone Cooling Design Supply Air Temperature Difference {deltaC}
  SupplyAirTemperature,                   !- Zone Heating Design Supply Air Temperature Input Method
  40,                                     !- Zone Heating Design Supply Air Temperature {C}
  11.11,                                  !- Zone Heating Design Supply Air Temperature Difference {deltaC}
  0.0085,                                 !- Zone Cooling Design Supply Air Humidity Ratio {kg-H2O/kg-air}
  0.008,                                  !- Zone Heating Design Supply Air Humidity Ratio {kg-H2O/kg-air}
  ,                                       !- Zone Heating Sizing Factor
  ,                                       !- Zone Cooling Sizing Factor
  DesignDay,                              !- Cooling Design Air Flow Method
  ,                                       !- Cooling Design Air Flow Rate {m3/s}
  ,                                       !- Cooling Minimum Air Flow per Zone Floor Area {m3/s-m2}
  ,                                       !- Cooling Minimum Air Flow {m3/s}
  ,                                       !- Cooling Minimum Air Flow Fraction
  DesignDay,                              !- Heating Design Air Flow Method
  ,                                       !- Heating Design Air Flow Rate {m3/s}
  ,                                       !- Heating Maximum Air Flow per Zone Floor Area {m3/s-m2}
  ,                                       !- Heating Maximum Air Flow {m3/s}
  ,                                       !- Heating Maximum Air Flow Fraction
  No,                                     !- Account for Dedicated Outdoor Air System
  NeutralSupplyAir,                       !- Dedicated Outdoor Air System Control Strategy
  autosize,                               !- Dedicated Outdoor Air Low Setpoint Temperature for Design {C}
  autosize,                               !- Dedicated Outdoor Air High Setpoint Temperature for Design {C}
  Sensible Load Only No Latent Load,      !- Zone Load Sizing Method
  HumidityRatioDifference,                !- Zone Latent Cooling Design Supply Air Humidity Ratio Input Method
  ,                                       !- Zone Dehumidification Design Supply Air Humidity Ratio {kgWater/kgDryAir}
  0.005,                                  !- Zone Cooling Design Supply Air Humidity Ratio Difference {kgWater/kgDryAir}
  HumidityRatioDifference,                !- Zone Latent Heating Design Supply Air Humidity Ratio Input Method
  ,                                       !- Zone Humidification Design Supply Air Humidity Ratio {kgWater/kgDryAir}
  0.005,                                  !- Zone Humidification Design Supply Air Humidity Ratio Difference {kgWater/kgDryAir}
  ,                                       !- Zone Humidistat Dehumidification Set Point Schedule Name
  ,                                       !- Zone Humidistat Humidification Set Point Schedule Name
  ,                                       !- Design Zone Air Distribution Effectiveness in Cooling Mode
  ,                                       !- Design Zone Air Distribution Effectiveness in Heating Mode
  ,                                       !- Design Zone Secondary Recirculation Fraction {dimensionless}
  ,                                       !- Design Minimum Zone Ventilation Efficiency {dimensionless}
  Coincident;                             !- Sizing Option

OS:ZoneHVAC:EquipmentList,
  {0e4933fb-82dc-4af0-a84a-8aff9806ac19}, !- Handle
  Zone HVAC Equipment List 2,             !- Name
  {5f4a88ec-6dfb-4dc6-81b8-da1e98b500b1}; !- Thermal Zone

OS:AdditionalProperties,
  {042ec2ba-085f-4ae5-ae32-384786226410}, !- Handle
  {5f4a88ec-6dfb-4dc6-81b8-da1e98b500b1}, !- Object Name
  ObjectType,                             !- Feature Name 1
  String,                                 !- Feature Data Type 1
  attic - vented;                         !- Feature Value 1

OS:Space,
  {deadd9ce-2a66-40d3-a9c2-4535977ac873}, !- Handle
  attic - vented 1,                       !- Name
  ,                                       !- Space Type Name
  ,                                       !- Default Construction Set Name
  ,                                       !- Default Schedule Set Name
  ,                                       !- Direction of Relative North {deg}
  ,                                       !- X Origin {m}
  ,                                       !- Y Origin {m}
  ,                                       !- Z Origin {m}
  ,                                       !- Building Story Name
  {5f4a88ec-6dfb-4dc6-81b8-da1e98b500b1}, !- Thermal Zone Name
  ,                                       !- Part of Total Floor Area
  ,                                       !- Design Specification Outdoor Air Object Name
  ,                                       !- Building Unit Name
  356.390921899745;                       !- Volume {m3}

OS:Material,
  {785a704c-0ef1-4488-bf29-7b5bfc3437fc}, !- Handle
  asphalt or fiberglass shingles,         !- Name
  Rough,                                  !- Roughness
  0.00635,                                !- Thickness {m}
  0.162714,                               !- Conductivity {W/m-K}
  1121.4,                                 !- Density {kg/m3}
  1465.45,                                !- Specific Heat {J/kg-K}
  0.9,                                    !- Thermal Absorptance
  0.85,                                   !- Solar Absorptance