
OS:Version,
  {1fd504d4-5ad5-4d98-a508-562c1f9de3ac}, !- Handle
  3.9.0;                                  !- Version Identifier

OS:SimulationControl,
  {94dcc699-bb00-42a7-a981-efbff14381d2}, !- Handle
  ,                                       !- Do Zone Sizing Calculation
  ,                                       !- Do System Sizing Calculation
  ,                                       !- Do Plant Sizing Calculation
  No;                                     !- Run Simulation for Sizing Periods

OS:Timestep,
  {81aa56b0-ff42-42a6-85b2-3239bfe431f2}, !- Handle
  1;                                      !- Number of Timesteps per Hour

OS:ShadowCalculation,
  {2f91f88a-3cdd-4360-b716-8b8b30f2ba0e}, !- Handle
  PolygonClipping,                        !- Shading Calculation Method
  ,                                       !- Shading Calculation Update Frequency Method
  20,                                     !- Shading Calculation Update Frequency
  200,                                    !- Maximum Figures in Shadow Overlap Calculations
  ,                                       !- Polygon Clipping Algorithm
  512,                                    !- Pixel Counting Resolution
  ,                                       !- Sky Diffuse Modeling Algorithm
  No,                                     !- Output External Shading Calculation Results
  No,                                     !- Disable Self-Shading Within Shading Zone Groups
  No;                                     !- Disable Self-Shading From Shading Zone Groups to Other Zones

OS:SurfaceConvectionAlgorithm:Outside,
  {8c9f5e03-1fb4-401a-9532-0f760bd2276c}, !- Handle
  DOE-2;                                  !- Algorithm

OS:SurfaceConvectionAlgorithm:Inside,
  {7f793fc8-adba-472a-98e9-2a8990fec14b}, !- Handle
  TARP;                                   !- Algorithm

OS:ZoneCapacitanceMultiplier:ResearchSpecial,
  {78212327-6dd4-46e9-861a-c003205e7fbd}, !- Handle
  7,                                      !- Temperature Capacity Multiplier
  15,                                     !- Humidity Capacity Multiplier
  ;                                       !- Carbon Dioxide Capacity Multiplier

OS:ConvergenceLimits,
  {d02c0278-8029-4bb5-82fe-d2ce47eac5a4}, !- Handle
  0;                                      !- Minimum System Timestep {minutes}

OS:RunPeriod,
  {1ca1f0be-65a8-4a70-821d-3e91186f4ab2}, !- Handle
  Run Period 1,                           !- Name
  1,                                      !- Begin Month
  1,                                      !- Begin Day of Month
  12,                                     !- End Month
  31,                                     !- End Day of Month
  ,                                       !- Use Weather File Holidays and Special Days
  ,                                       !- Use Weather File Daylight Saving Period
  ,                                       !- Apply Weekend Holiday Rule
  ,                                       !- Use Weather File Rain Indicators
  ,                                       !- Use Weather File Snow Indicators
  ;                                       !- Number of Times Runperiod to be Repeated

OS:PerformancePrecisionTradeoffs,
  {19cb539c-e7af-4cbd-bbd7-0514d3dd4e81}, !- Handle
  ,                                       !- Use Coil Direct Solutions
  CarrollMRT;                             !- Zone Radiant Exchange Algorithm

OS:WeatherFile,
  {325bbc20-a1d0-4c3d-bedc-fcf66dd705d8}, !- Handle
  Buffalo Niagara Intl Ap,                !- City
  NY,                                     !- State Province Region
  USA,                                    !- Country
  TMY3,                                   !- Data Source
  725280,                                 !- WMO Number
  42.93,                                  !- Latitude {deg}
  -78.73,                                 !- Longitude {deg}
  -5,                                     !- Time Zone {hr}
  215,                                    !- Elevation {m}
  /Users/nmoore/github/urbanopt-example-geojson-project/example_project/weather/USA_NY_Buffalo-Greater.Buffalo.Intl.AP.725280_TMY3.epw, !- Url
  6B50E0FF,                               !- Checksum
  ,                                       !- Start Date Actual Year
  Sunday;                                 !- Start Day of Week

OS:YearDescription,
  {096922dc-6632-4d91-b3fc-3b619efef129}, !- Handle
  2007,                                   !- Calendar Year
  ,                                       !- Day of Week for Start Day
  ;                                       !- Is Leap Year

OS:Site,
  {6e95561d-139e-4bf2-bd52-21100314e677}, !- Handle
  Buffalo Niagara Intl Ap_NY,             !- Name
  42.93,                                  !- Latitude {deg}
  -78.73,                                 !- Longitude {deg}
  -5,                                     !- Time Zone {hr}
  215,                                    !- Elevation {m}
  Suburbs,                                !- Terrain
  Yes;                                    !- Keep Site Location Information

OS:RunPeriodControl:DaylightSavingTime,
  {173f6e38-366d-47ee-8209-d6cfbfbbeeef}, !- Handle
  Mar 12,                                 !- Start Date
  Nov 5;                                  !- End Date

OS:Site:GroundTemperature:Shallow,
  {cf927cc3-7e12-40cb-b69a-a0ee5235beb3}, !- Handle
  4.30207395723828,                       !- January Surface Ground Temperature {C}
  2.29327249652502,                       !- February Surface Ground Temperature {C}
  2.13240047156047,                       !- March Surface Ground Temperature {C}
  3.08567940719286,                       !- April Surface Ground Temperature {C}
  6.91256312497526,                       !- May Surface Ground Temperature {C}
  10.7216195949507,                       !- June Surface Ground Temperature {C}
  14.0238679822574,                       !- July Surface Ground Temperature {C}
  16.1157611184724,                       !- August Surface Ground Temperature {C}
  16.2934789303462,                       !- September Surface Ground Temperature {C}
  14.5920754632847,                       !- October Surface Ground Temperature {C}
  11.374036348653,                        !- November Surface Ground Temperature {C}
  7.68182621661674;                       !- December Surface Ground Temperature {C}

OS:ThermalZone,
  {a9df5a77-f9f5-4fc8-92ee-4225a855d10d}, !- Handle
  conditioned space,                      !- Name
  1,                                      !- Multiplier
  ,                                       !- Ceiling Height {m}
  692.06373070848,                        !- Volume {m3}
  ,                                       !- Floor Area {m2}
  ,                                       !- Zone Inside Convection Algorithm
  ,                                       !- Zone Outside Convection Algorithm
  ,                                       !- Zone Conditioning Equipment List Name
  {b754e735-c05f-44b6-b2bd-070b90a6bfdc}, !- Zone Air Inlet Port List
  {4128772c-e5db-43be-8960-9d0c36ce3f43}, !- Zone Air Exhaust Port List
  {87fe9ed0-e8b1-4260-8249-7bad53ffbd08}, !- Zone Air Node Name
  {92f5b67c-fd0a-4e2a-a887-d9001185fe69}, !- Zone Return Air Port List
  ,                                       !- Primary Daylighting Control Name
  ,                                       !- Fraction of Zone Controlled by Primary Daylighting Control
  ,                                       !- Secondary Daylighting Control Name
  ,                                       !- Fraction of Zone Controlled by Secondary Daylighting Control
  ,                                       !- Illuminance Map Name
  ,                                       !- Group Rendering Name
  {fed2c521-7812-4652-9eaa-607f16327a79}, !- Thermostat Name
  No;                                     !- Use Ideal Air Loads

OS:Node,
  {9e3117df-c484-40b7-9c1b-f2819b8c0469}, !- Handle
  Node 1,                                 !- Name
  {87fe9ed0-e8b1-4260-8249-7bad53ffbd08}, !- Inlet Port
  ;                                       !- Outlet Port

OS:Connection,
  {87fe9ed0-e8b1-4260-8249-7bad53ffbd08}, !- Handle
  {a9df5a77-f9f5-4fc8-92ee-4225a855d10d}, !- Source Object
  11,                                     !- Outlet Port
  {9e3117df-c484-40b7-9c1b-f2819b8c0469}, !- Target Object
  2;                                      !- Inlet Port

OS:PortList,
  {b754e735-c05f-44b6-b2bd-070b90a6bfdc}, !- Handle
  {a9df5a77-f9f5-4fc8-92ee-4225a855d10d}, !- HVAC Component
  {3013aafa-4c09-4588-95d8-ee8a62d40154}; !- Port 1

OS:PortList,
  {4128772c-e5db-43be-8960-9d0c36ce3f43}, !- Handle
  {a9df5a77-f9f5-4fc8-92ee-4225a855d10d}; !- HVAC Component

OS:PortList,
  {92f5b67c-fd0a-4e2a-a887-d9001185fe69}, !- Handle
  {a9df5a77-f9f5-4fc8-92ee-4225a855d10d}, !- HVAC Component
  {6b629091-5d08-43ab-959a-cd22f2e832be}; !- Port 1

OS:Sizing:Zone,
  {d46a5131-3446-41d1-a4ea-6123d9ceeb06}, !- Handle
  {a9df5a77-f9f5-4fc8-92ee-4225a855d10d}, !- Zone or ZoneList Name
  SupplyAirTemperature,                   !- Zone Cooling Design Supply Air Temperature Input Method
  14,                                     !- Zone Cooling Design Supply Air Temperature {C}
  11.11,                                  !- Zone Cooling Design Supply Air Temperature Difference {deltaC}
  SupplyAirTemperature,                   !- Zone Heating Design Supply Air Temperature Input Method
  40,                                     !- Zone Heating Design Supply Air Temperature {C}
  11.11,                                  !- Zone Heating Design Supply Air Temperature Difference {deltaC}
  0.0085,                                 !- Zone Cooling Design Supply Air Humidity Ratio {kg-H2O/kg-air}
  0.008,                                  !- Zone Heating Design Supply Air Humidity Ratio {kg-H2O/kg-air}
  ,                                       !- Zone Heating Sizing Factor
  ,                                       !- Zone Cooling Sizing Factor
  DesignDay,                              !- Cooling Design Air Flow Method
  ,                                       !- Cooling Design Air Flow Rate {m3/s}
  ,                                       !- Cooling Minimum Air Flow per Zone Floor Area {m3/s-m2}
  ,                                       !- Cooling Minimum Air Flow {m3/s}
  ,                                       !- Cooling Minimum Air Flow Fraction
  DesignDay,                              !- Heating Design Air Flow Method
  ,                                       !- Heating Design Air Flow Rate {m3/s}
  ,                                       !- Heating Maximum Air Flow per Zone Floor Area {m3/s-m2}
  ,                                       !- Heating Maximum Air Flow {m3/s}
  ,                                       !- Heating Maximum Air Flow Fraction
  No,                                     !- Account for Dedicated Outdoor Air System
  NeutralSupplyAir,                       !- Dedicated Outdoor Air System Control Strategy
  autosize,                               !- Dedicated Outdoor Air Low Setpoint Temperature for Design {C}
  autosize,                               !- Dedicated Outdoor Air High Setpoint Temperature for Design {C}
  Sensible Load Only No Latent Load,      !- Zone Load Sizing Method
  HumidityRatioDifference,                !- Zone Latent Cooling Design Supply Air Humidity Ratio Input Method
  ,                                       !- Zone Dehumidification Design Supply Air Humidity Ratio {kgWater/kgDryAir}
  0.005,                                  !- Zone Cooling Design Supply Air Humidity Ratio Difference {kgWater/kgDryAir}
  HumidityRatioDifference,                !- Zone Latent Heating Design Supply Air Humidity Ratio Input Method
  ,                                       !- Zone Humidification Design Supply Air Humidity Ratio {kgWater/kgDryAir}
  0.005,                                  !- Zone Humidification Design Supply Air Humidity Ratio Difference {kgWater/kgDryAir}
  ,                                       !- Zone Humidistat Dehumidification Set Point Schedule Name
  ,                                       !- Zone Humidistat Humidification Set Point Schedule Name
  ,                                       !- Design Zone Air Distribution Effectiveness in Cooling Mode
  ,                                       !- Design Zone Air Distribution Effectiveness in Heating Mode
  ,                                       !- Design Zone Secondary Recirculation Fraction {dimensionless}
  ,                                       !- Design Minimum Zone Ventilation Efficiency {dimensionless}
  Coincident;                             !- Sizing Option

OS:ZoneHVAC:EquipmentList,
  {02cfecb4-69f1-4a26-b693-e219c646bd06}, !- Handle
  Zone HVAC Equipment List 1,             !- Name
  {a9df5a77-f9f5-4fc8-92ee-4225a855d10d}, !- Thermal Zone
  ,                                       !- Load Distribution Scheme
  {3728a61c-5732-4d2f-859d-19d01d419050}, !- Zone Equipment 1
  1,                                      !- Zone Equipment Cooling Sequence 1
  1,                                      !- Zone Equipment Heating or No-Load Sequence 1
  {ff55e21b-f3e1-4140-81f4-9cdd8af4b2d3}, !- Zone Equipment Sequential Cooling Fraction Schedule Name 1
  {cecfbd68-3518-4262-9ee3-b680e5a8a604}; !- Zone Equipment Sequential Heating Fraction Schedule Name 1

OS:AdditionalProperties,
  {9ae0f0b9-949c-473c-9e1c-beb9a01f6819}, !- Handle
  {a9df5a77-f9f5-4fc8-92ee-4225a855d10d}, !- Object Name
  ObjectType,                             !- Feature Name 1
  String,                                 !- Feature Data Type 1
  conditioned space;                      !- Feature Value 1

OS:Space,
  {fe88106a-4b0b-4ca2-9a6b-6540192ce167}, !- Handle
  conditioned space 1,                    !- Name
  ,                                       !- Space Type Name
  ,                                       !- Default Construction Set Name
  ,                                       !- Default Schedule Set Name
  ,                                       !- Direction of Relative North {deg}
  ,                                       !- X Origin {m}
  ,                                       !- Y Origin {m}
  ,                                       !- Z Origin {m}
  ,                                       !- Building Story Name
  {a9df5a77-f9f5-4fc8-92ee-4225a855d10d}, !- Thermal Zone Name
  ,                                       !- Part of Total Floor Area
  ,                                       !- Design Specification Outdoor Air Object Name
  ,                                       !- Building Unit Name
  692.06373070848;                        !- Volume {m3}

OS:Schedule:Ruleset,
  {1181d8a7-c2d4-43ff-bb5b-404a5502f096}, !- Handle
  heating setpoint,                       !- Name
  {febf143e-01c0-4d58-a490-afa8b5ea6890}, !- Schedule Type Limits Name
  {d3fb8465-a36e-4db9-a4c1-5274bba89cf0}; !- Default Day Schedule Name

OS:Schedule:Day,
  {d3fb8465-a36e-4db9-a4c1-5274bba89cf0}, !- Handle
  heating setpoint default day,           !- Name
  {febf143e-01c0-4d58-a490-afa8b5ea6890}, !- Schedule Type Limits Name
  ,                                       !- Interpolate to Timestep
  24,                                     !- Hour 1
  0,                                      !- Minute 1
  0;                                      !- Value Until Time 1

OS:Schedule:Rule,
  {a810df83-a614-4615-a7cb-66c8640f4b78}, !- Handle
  heating setpoint allday rule,           !- Name
  {1181d8a7-c2d4-43ff-bb5b-404a5502f096}, !- Schedule Ruleset Name
  0,                                      !- Rule Order
  {0f1da4e1-c75f-4fa8-8592-79d342270819}, !- Day Schedule Name
  Yes,                                    !- Apply Sunday
  Yes,                                    !- Apply Monday
  Yes,                                    !- Apply Tuesday
  Yes,                                    !- Apply Wednesday
  Yes,                                    !- Apply Thursday
  Yes,                                    !- Apply Friday
  Yes,                                    !- Apply Saturday
  DateRange,                              !- Date Specification Type
  1,                                      !- Start Month
  1,                                      !- Start Day
  12,                                     !- End Month
  31;                                     !- End Day

OS:Schedule:Day,
  {0f1da4e1-c75f-4fa8-8592-79d342270819}, !- Handle
  heating setpoint day,                   !- Name
  {febf143e-01c0-4d58-a490-afa8b5ea6890}, !- Schedule Type Limits Name
  ,                                       !- Interpolate to Timestep
  24,                                     !- Hour 1
  0,                                      !- Minute 1
  20;                                     !- Value Until Time 1

OS:Schedule:Ruleset,
  {615cff1f-d2f2-4227-9276-a3554f630964}, !- Handle
  cooling setpoint,                       !- Name
  {febf143e-01c0-4d58-a490-afa8b5ea6890}, !- Schedule Type Limits Name
  {f6d9614c-caa4-4c65-9ee9-8a0aee68eee2}; !- Default Day Schedule Name

OS:Schedule:Day,
  {f6d9614c-caa4-4c65-9ee9-8a0aee68eee2}, !- Handle
  cooling setpoint default day,           !- Name
  {febf143e-01c0-4d58-a490-afa8b5ea6890}, !- Schedule Type Limits Name
  ,                                       !- Interpolate to Timestep
  24,                                     !- Hour 1
  0,                                      !- Minute 1
  0;                                      !- Value Until Time 1

OS:Schedule:Rule,
  {09436799-7ee9-4987-b23f-0afcc663ae0c}, !- Handle
  cooling setpoint allday rule,           !- Name
  {615cff1f-d2f2-4227-9276-a3554f630964}, !- Schedule Ruleset Name
  0,                                      !- Rule Order
  {24f76c06-9158-4d00-92d8-bb281c81cd27}, !- Day Schedule Name
  Yes,                                    !- Apply Sunday
  Yes,                                    !- Apply Monday
  Yes,                                    !- Apply Tuesday
  Yes,                                    !- Apply Wednesday
  Yes,                                    !- Apply Thursday
  Yes,                                    !- Apply Friday
  Yes,                                    !- Apply Saturday
  DateRange,                              !- Date Specification Type
  1,                                      !- Start Month
  1,                                      !- Start Day
  12,                                     !- End Month
  31;                                     !- End Day

OS:Schedule:Day,
  {24f76c06-9158-4d00-92d8-bb281c81cd27}, !- Handle
  cooling setpoint day,                   !- Name
  {febf143e-01c0-4d58-a490-afa8b5ea6890}, !- Schedule Type Limits Name
  ,                                       !- Interpolate to Timestep
  24,                                     !- Hour 1
  0,                                      !- Minute 1
  25.5555555555556;                       !- Value Until Time 1

OS:ThermostatSetpoint:DualSetpoint,
  {fed2c521-7812-4652-9eaa-607f16327a79}, !- Handle
  conditioned space temperature setpoint, !- Name
  {1181d8a7-c2d4-43ff-bb5b-404a5502f096}, !- Heating Setpoint Temperature Schedule Name
  {615cff1f-d2f2-4227-9276-a3554f630964}, !- Cooling Setpoint Temperature Schedule Name
  0;                                      !- Temperature Difference Between Cutout And Setpoint {deltaC}

OS:ScheduleTypeLimits,
  {febf143e-01c0-4d58-a490-afa8b5ea6890}, !- Handle
  Temperature,                            !- Name
  ,                                       !- Lower Limit Value
  ,                                       !- Upper Limit Value
  Continuous,                             !- Numeric Type
  Temperature;                            !- Unit Type

OS:Surface,
  {c00bf45e-1ec6-42be-a0d7-99decc6a3258}, !- Handle
  Roof1,                                  !- Name
  RoofCeiling,                            !- Surface Type
  {cfb77eb9-31f2-44a9-a6b7-c3edfbdc3248}, !- Construction Name
  {b8628b0c-15ae-4bb6-8b56-84805e3f3933}, !- Space Name
  Outdoors,                               !- Outside Boundary Condition
  ,                                       !- Outside Boundary Condition Object
  SunExposed,                             !- Sun Exposure
  WindExposed,                            !- Wind Exposure
  ,                                       !- View Factor to Ground
  ,                                       !- Number of Vertices
  -26.9347048849634, 58.0557891618865, 2.4384, !- X,Y,Z Vertex 1 {m}
  -26.9347048849634, 46.7895631136661, 8.0715130241102, !- X,Y,Z Vertex 2 {m}
  -14.3386812381136, 46.7895631136661, 8.0715130241102, !- X,Y,Z Vertex 3 {m}
  -14.3386812381136, 58.0557891618865, 2.4384; !- X,Y,Z Vertex 4 {m}

OS:AdditionalProperties,
  {bb6c24f2-a147-44cb-905a-9359966e9dd2}, !- Handle
  {c00bf45e-1ec6-42be-a0d7-99decc6a3258}, !- Object Name
  Length,                                 !- Feature Name 1
  Double,                                 !- Feature Data Type 1
  41.325536899113608,                     !- Feature Value 1
  Width,                                  !- Feature Name 2
  Double,                                 !- Feature Data Type 2
  41.325536899113601,                     !- Feature Value 2
  Azimuth,                                !- Feature Name 3
  Integer,                                !- Feature Data Type 3
  0,                                      !- Feature Value 3
  Tilt,                                   !- Feature Name 4
  Double,                                 !- Feature Data Type 4
  0.5,                                    !- Feature Value 4
  SurfaceType,                            !- Feature Name 5
  String,                                 !- Feature Data Type 5
  Roof;                                   !- Feature Value 5

OS:ThermalZone,
  {e3b557cc-557d-4884-bac2-ad93b99adffc}, !- Handle
  attic - vented,                         !- Name
  1,                                      !- Multiplier
  ,                                       !- Ceiling Height {m}
  356.389957095237,                       !- Volume {m3}
  ,                                       !- Floor Area {m2}
  ,                                       !- Zone Inside Convection Algorithm
  ,                                       !- Zone Outside Convection Algorithm
  ,                                       !- Zone Conditioning Equipment List Name
  {a63a579b-60d1-4eaa-8728-c8daf68e2b20}, !- Zone Air Inlet Port List
  {f9d3aa6f-47d4-410e-a384-c5a9b12ae910}, !- Zone Air Exhaust Port List
  {7b3a89c7-5703-4f25-8bf0-f636b68ec6c2}, !- Zone Air Node Name
  {993dc8da-2444-4c6f-805f-36950c842e44}, !- Zone Return Air Port List
  ,                                       !- Primary Daylighting Control Name
  ,                                       !- Fraction of Zone Controlled by Primary Daylighting Control
  ,                                       !- Secondary Daylighting Control Name
  ,                                       !- Fraction of Zone Controlled by Secondary Daylighting Control
  ,                                       !- Illuminance Map Name
  ,                                       !- Group Rendering Name
  ,                                       !- Thermostat Name
  No;                                     !- Use Ideal Air Loads

OS:Node,
  {232c10d8-ee6d-4a0d-a863-d3f8d1237506}, !- Handle
  Node 2,                                 !- Name
  {7b3a89c7-5703-4f25-8bf0-f636b68ec6c2}, !- Inlet Port
  ;                                       !- Outlet Port

OS:Connection,
  {7b3a89c7-5703-4f25-8bf0-f636b68ec6c2}, !- Handle
  {e3b557cc-557d-4884-bac2-ad93b99adffc}, !- Source Object
  11,                                     !- Outlet Port
  {232c10d8-ee6d-4a0d-a863-d3f8d1237506}, !- Target Object
  2;                                      !- Inlet Port

OS:PortList,
  {a63a579b-60d1-4eaa-8728-c8daf68e2b20}, !- Handle
  {e3b557cc-557d-4884-bac2-ad93b99adffc}; !- HVAC Component

OS:PortList,
  {f9d3aa6f-47d4-410e-a384-c5a9b12ae910}, !- Handle
  {e3b557cc-557d-4884-bac2-ad93b99adffc}; !- HVAC Component

OS:PortList,
  {993dc8da-2444-4c6f-805f-36950c842e44}, !- Handle
  {e3b557cc-557d-4884-bac2-ad93b99adffc}; !- HVAC Component

OS:Sizing:Zone,
  {09bbfe2c-52ca-4960-ac36-e96b16080888}, !- Handle
  {e3b557cc-557d-4884-bac2-ad93b99adffc}, !- Zone or ZoneList Name
  SupplyAirTemperature,                   !- Zone Cooling Design Supply Air Temperature Input Method
  14,                                     !- Zone Cooling Design Supply Air Temperature {C}
  11.11,                                  !- Zone Cooling Design Supply Air Temperature Difference {deltaC}
  SupplyAirTemperature,                   !- Zone Heating Design Supply Air Temperature Input Method
  40,                                     !- Zone Heating Design Supply Air Temperature {C}
  11.11,                                  !- Zone Heating Design Supply Air Temperature Difference {deltaC}
  0.0085,                                 !- Zone Cooling Design Supply Air Humidity Ratio {kg-H2O/kg-air}
  0.008,                                  !- Zone Heating Design Supply Air Humidity Ratio {kg-H2O/kg-air}
  ,                                       !- Zone Heating Sizing Factor
  ,                                       !- Zone Cooling Sizing Factor
  DesignDay,                              !- Cooling Design Air Flow Method
  ,                                       !- Cooling Design Air Flow Rate {m3/s}
  ,                                       !- Cooling Minimum Air Flow per Zone Floor Area {m3/s-m2}
  ,                                       !- Cooling Minimum Air Flow {m3/s}
  ,                                       !- Cooling Minimum Air Flow Fraction
  DesignDay,                              !- Heating Design Air Flow Method
  ,                                       !- Heating Design Air Flow Rate {m3/s}
  ,                                       !- Heating Maximum Air Flow per Zone Floor Area {m3/s-m2}
  ,                                       !- Heating Maximum Air Flow {m3/s}
  ,                                       !- Heating Maximum Air Flow Fraction
  No,                                     !- Account for Dedicated Outdoor Air System
  NeutralSupplyAir,                       !- Dedicated Outdoor Air System Control Strategy
  autosize,                               !- Dedicated Outdoor Air Low Setpoint Temperature for Design {C}
  autosize,                               !- Dedicated Outdoor Air High Setpoint Temperature for Design {C}
  Sensible Load Only No Latent Load,      !- Zone Load Sizing Method
  HumidityRatioDifference,                !- Zone Latent Cooling Design Supply Air Humidity Ratio Input Method
  ,                                       !- Zone Dehumidification Design Supply Air Humidity Ratio {kgWater/kgDryAir}
  0.005,                                  !- Zone Cooling Design Supply Air Humidity Ratio Difference {kgWater/kgDryAir}
  HumidityRatioDifference,                !- Zone Latent Heating Design Supply Air Humidity Ratio Input Method
  ,                                       !- Zone Humidification Design Supply Air Humidity Ratio {kgWater/kgDryAir}
  0.005,                                  !- Zone Humidification Design Supply Air Humidity Ratio Difference {kgWater/kgDryAir}
  ,                                       !- Zone Humidistat Dehumidification Set Point Schedule Name
  ,                                       !- Zone Humidistat Humidification Set Point Schedule Name
  ,                                       !- Design Zone Air Distribution Effectiveness in Cooling Mode
  ,                                       !- Design Zone Air Distribution Effectiveness in Heating Mode
  ,                                       !- Design Zone Secondary Recirculation Fraction {dimensionless}
  ,                                       !- Design Minimum Zone Ventilation Efficiency {dimensionless}
  Coincident;                             !- Sizing Option

OS:ZoneHVAC:EquipmentList,
  {c3ccfc8c-f1aa-4044-9e8b-91a51526d4d2}, !- Handle
  Zone HVAC Equipment List 2,             !- Name
  {e3b557cc-557d-4884-bac2-ad93b99adffc}; !- Thermal Zone

OS:AdditionalProperties,
  {91cec568-d9d4-4a89-99cd-58644905885f}, !- Handle
  {e3b557cc-557d-4884-bac2-ad93b99adffc}, !- Object Name
  ObjectType,                             !- Feature Name 1
  String,                                 !- Feature Data Type 1
  attic - vented;                         !- Feature Value 1

OS:Space,
  {b8628b0c-15ae-4bb6-8b56-84805e3f3933}, !- Handle
  attic - vented 1,                       !- Name
  ,                                       !- Space Type Name
  ,                                       !- Default Construction Set Name
  ,                                       !- Default Schedule Set Name
  ,                                       !- Direction of Relative North {deg}
  ,                                       !- X Origin {m}
  ,                                       !- Y Origin {m}
  ,                                       !- Z Origin {m}
  ,                                       !- Building Story Name
  {e3b557cc-557d-4884-bac2-ad93b99adffc}, !- Thermal Zone Name
  ,                                       !- Part of Total Floor Area
  ,                                       !- Design Specification Outdoor Air Object Name
  ,                                       !- Building Unit Name
  356.389957095237;                       !- Volume {m3}

OS:Material,
  {43c4147f-8960-49c0-b4a8-0f7f1c2e056c}, !- Handle
  asphalt or fiberglass shingles,         !- Name
  Rough,                                  !- Roughness
  0.00635,                                !- Thickness {m}
  0.162714,                               !- Conductivity {W/m-K}
  1121.4,                                 !- Density {kg/m3}
  1465.45,                                !- Specific Heat {J/kg-K}
  0.9,                                    !- Thermal Absorptance
  0.85,                                   !- Solar Absorptance