
OS:Version,
  {4ac8080c-d993-458b-9f95-dcea3b316ce8}, !- Handle
  3.9.0;                                  !- Version Identifier

OS:SimulationControl,
  {f360705a-cdfb-49a8-bf88-d8f4af18926b}, !- Handle
  ,                                       !- Do Zone Sizing Calculation
  ,                                       !- Do System Sizing Calculation
  ,                                       !- Do Plant Sizing Calculation
  No;                                     !- Run Simulation for Sizing Periods

OS:Timestep,
  {421c8fef-4d2b-4d20-b39f-a9fc5786c32e}, !- Handle
  1;                                      !- Number of Timesteps per Hour

OS:ShadowCalculation,
  {db105c97-9046-4230-8542-0110dce63e0f}, !- Handle
  PolygonClipping,                        !- Shading Calculation Method
  ,                                       !- Shading Calculation Update Frequency Method
  20,                                     !- Shading Calculation Update Frequency
  200,                                    !- Maximum Figures in Shadow Overlap Calculations
  ,                                       !- Polygon Clipping Algorithm
  512,                                    !- Pixel Counting Resolution
  ,                                       !- Sky Diffuse Modeling Algorithm
  No,                                     !- Output External Shading Calculation Results
  No,                                     !- Disable Self-Shading Within Shading Zone Groups
  No;                                     !- Disable Self-Shading From Shading Zone Groups to Other Zones

OS:SurfaceConvectionAlgorithm:Outside,
  {0bed618d-5946-47d8-8e6a-cfc6495da0c4}, !- Handle
  DOE-2;                                  !- Algorithm

OS:SurfaceConvectionAlgorithm:Inside,
  {b9a1d8e0-02c3-4e2d-8af0-160fb943375d}, !- Handle
  TARP;                                   !- Algorithm

OS:ZoneCapacitanceMultiplier:ResearchSpecial,
  {6f4786b1-d520-4491-9aad-049b4a968b32}, !- Handle
  7,                                      !- Temperature Capacity Multiplier
  15,                                     !- Humidity Capacity Multiplier
  ;                                       !- Carbon Dioxide Capacity Multiplier

OS:ConvergenceLimits,
  {66112b0b-0197-45a1-a22b-d602afe0fe43}, !- Handle
  0;                                      !- Minimum System Timestep {minutes}

OS:RunPeriod,
  {635ce305-9ed3-4cd5-9b99-9a96afc29e0e}, !- Handle
  Run Period 1,                           !- Name
  1,                                      !- Begin Month
  1,                                      !- Begin Day of Month
  12,                                     !- End Month
  31,                                     !- End Day of Month
  ,                                       !- Use Weather File Holidays and Special Days
  ,                                       !- Use Weather File Daylight Saving Period
  ,                                       !- Apply Weekend Holiday Rule
  ,                                       !- Use Weather File Rain Indicators
  ,                                       !- Use Weather File Snow Indicators
  ;                                       !- Number of Times Runperiod to be Repeated

OS:PerformancePrecisionTradeoffs,
  {c207e4f6-6abe-4268-a08f-6d74f498e8c9}, !- Handle
  ,                                       !- Use Coil Direct Solutions
  CarrollMRT;                             !- Zone Radiant Exchange Algorithm

OS:WeatherFile,
  {7d5d2b10-12e6-4ab2-a3f4-b770da32499f}, !- Handle
  Buffalo Niagara Intl Ap,                !- City
  NY,                                     !- State Province Region
  USA,                                    !- Country
  TMY3,                                   !- Data Source
  725280,                                 !- WMO Number
  42.93,                                  !- Latitude {deg}
  -78.73,                                 !- Longitude {deg}
  -5,                                     !- Time Zone {hr}
  215,                                    !- Elevation {m}
  /Users/nmoore/github/urbanopt-example-geojson-project/example_project/weather/USA_NY_Buffalo-Greater.Buffalo.Intl.AP.725280_TMY3.epw, !- Url
  6B50E0FF,                               !- Checksum
  ,                                       !- Start Date Actual Year
  Sunday;                                 !- Start Day of Week

OS:YearDescription,
  {a5c77454-858a-4015-b2bf-651119986150}, !- Handle
  2007,                                   !- Calendar Year
  ,                                       !- Day of Week for Start Day
  ;                                       !- Is Leap Year

OS:Site,
  {84a20404-9b7e-4fde-ae8f-0c9ad8a8a8b8}, !- Handle
  Buffalo Niagara Intl Ap_NY,             !- Name
  42.93,                                  !- Latitude {deg}
  -78.73,                                 !- Longitude {deg}
  -5,                                     !- Time Zone {hr}
  215,                                    !- Elevation {m}
  Suburbs,                                !- Terrain
  Yes;                                    !- Keep Site Location Information

OS:RunPeriodControl:DaylightSavingTime,
  {73239712-8a2f-482e-a535-7bb34181e3b5}, !- Handle
  Mar 12,                                 !- Start Date
  Nov 5;                                  !- End Date

OS:Site:GroundTemperature:Shallow,
  {6d262814-a98a-438b-81a2-208d35491ccf}, !- Handle
  4.30207395723828,                       !- January Surface Ground Temperature {C}
  2.29327249652502,                       !- February Surface Ground Temperature {C}
  2.13240047156047,                       !- March Surface Ground Temperature {C}
  3.08567940719286,                       !- April Surface Ground Temperature {C}
  6.91256312497526,                       !- May Surface Ground Temperature {C}
  10.7216195949507,                       !- June Surface Ground Temperature {C}
  14.0238679822574,                       !- July Surface Ground Temperature {C}
  16.1157611184724,                       !- August Surface Ground Temperature {C}
  16.2934789303462,                       !- September Surface Ground Temperature {C}
  14.5920754632847,                       !- October Surface Ground Temperature {C}
  11.374036348653,                        !- November Surface Ground Temperature {C}
  7.68182621661674;                       !- December Surface Ground Temperature {C}

OS:ThermalZone,
  {4645940f-2552-495c-836b-f3d407afe2c9}, !- Handle
  conditioned space,                      !- Name
  1,                                      !- Multiplier
  ,                                       !- Ceiling Height {m}
  692.06373070848,                        !- Volume {m3}
  ,                                       !- Floor Area {m2}
  ,                                       !- Zone Inside Convection Algorithm
  ,                                       !- Zone Outside Convection Algorithm
  ,                                       !- Zone Conditioning Equipment List Name
  {f7cdd76d-d5cc-4b28-807b-57cc7a122794}, !- Zone Air Inlet Port List
  {3c9286dd-a59b-4f4d-affe-940ad53f5670}, !- Zone Air Exhaust Port List
  {9b0c8142-698a-4fa9-803e-44e4e8ea14e0}, !- Zone Air Node Name
  {ba991179-37a1-4d0f-ad84-038c27865648}, !- Zone Return Air Port List
  ,                                       !- Primary Daylighting Control Name
  ,                                       !- Fraction of Zone Controlled by Primary Daylighting Control
  ,                                       !- Secondary Daylighting Control Name
  ,                                       !- Fraction of Zone Controlled by Secondary Daylighting Control
  ,                                       !- Illuminance Map Name
  ,                                       !- Group Rendering Name
  {c0c34c1b-ae8e-4a7b-87d9-182bae8c89cd}, !- Thermostat Name
  No;                                     !- Use Ideal Air Loads

OS:Node,
  {3ee5a48f-a140-4ce8-8621-22988a2569d6}, !- Handle
  Node 1,                                 !- Name
  {9b0c8142-698a-4fa9-803e-44e4e8ea14e0}, !- Inlet Port
  ;                                       !- Outlet Port

OS:Connection,
  {9b0c8142-698a-4fa9-803e-44e4e8ea14e0}, !- Handle
  {4645940f-2552-495c-836b-f3d407afe2c9}, !- Source Object
  11,                                     !- Outlet Port
  {3ee5a48f-a140-4ce8-8621-22988a2569d6}, !- Target Object
  2;                                      !- Inlet Port

OS:PortList,
  {f7cdd76d-d5cc-4b28-807b-57cc7a122794}, !- Handle
  {4645940f-2552-495c-836b-f3d407afe2c9}, !- HVAC Component
  {6e93b4b3-8fc5-410d-ab81-0507d50244d3}; !- Port 1

OS:PortList,
  {3c9286dd-a59b-4f4d-affe-940ad53f5670}, !- Handle
  {4645940f-2552-495c-836b-f3d407afe2c9}; !- HVAC Component

OS:PortList,
  {ba991179-37a1-4d0f-ad84-038c27865648}, !- Handle
  {4645940f-2552-495c-836b-f3d407afe2c9}, !- HVAC Component
  {49993200-0137-4135-89d7-c46a6e630302}; !- Port 1

OS:Sizing:Zone,
  {db9f4d94-2a31-440f-a8a5-90176616352d}, !- Handle
  {4645940f-2552-495c-836b-f3d407afe2c9}, !- Zone or ZoneList Name
  SupplyAirTemperature,                   !- Zone Cooling Design Supply Air Temperature Input Method
  14,                                     !- Zone Cooling Design Supply Air Temperature {C}
  11.11,                                  !- Zone Cooling Design Supply Air Temperature Difference {deltaC}
  SupplyAirTemperature,                   !- Zone Heating Design Supply Air Temperature Input Method
  40,                                     !- Zone Heating Design Supply Air Temperature {C}
  11.11,                                  !- Zone Heating Design Supply Air Temperature Difference {deltaC}
  0.0085,                                 !- Zone Cooling Design Supply Air Humidity Ratio {kg-H2O/kg-air}
  0.008,                                  !- Zone Heating Design Supply Air Humidity Ratio {kg-H2O/kg-air}
  ,                                       !- Zone Heating Sizing Factor
  ,                                       !- Zone Cooling Sizing Factor
  DesignDay,                              !- Cooling Design Air Flow Method
  ,                                       !- Cooling Design Air Flow Rate {m3/s}
  ,                                       !- Cooling Minimum Air Flow per Zone Floor Area {m3/s-m2}
  ,                                       !- Cooling Minimum Air Flow {m3/s}
  ,                                       !- Cooling Minimum Air Flow Fraction
  DesignDay,                              !- Heating Design Air Flow Method
  ,                                       !- Heating Design Air Flow Rate {m3/s}
  ,                                       !- Heating Maximum Air Flow per Zone Floor Area {m3/s-m2}
  ,                                       !- Heating Maximum Air Flow {m3/s}
  ,                                       !- Heating Maximum Air Flow Fraction
  No,                                     !- Account for Dedicated Outdoor Air System
  NeutralSupplyAir,                       !- Dedicated Outdoor Air System Control Strategy
  autosize,                               !- Dedicated Outdoor Air Low Setpoint Temperature for Design {C}
  autosize,                               !- Dedicated Outdoor Air High Setpoint Temperature for Design {C}
  Sensible Load Only No Latent Load,      !- Zone Load Sizing Method
  HumidityRatioDifference,                !- Zone Latent Cooling Design Supply Air Humidity Ratio Input Method
  ,                                       !- Zone Dehumidification Design Supply Air Humidity Ratio {kgWater/kgDryAir}
  0.005,                                  !- Zone Cooling Design Supply Air Humidity Ratio Difference {kgWater/kgDryAir}
  HumidityRatioDifference,                !- Zone Latent Heating Design Supply Air Humidity Ratio Input Method
  ,                                       !- Zone Humidification Design Supply Air Humidity Ratio {kgWater/kgDryAir}
  0.005,                                  !- Zone Humidification Design Supply Air Humidity Ratio Difference {kgWater/kgDryAir}
  ,                                       !- Zone Humidistat Dehumidification Set Point Schedule Name
  ,                                       !- Zone Humidistat Humidification Set Point Schedule Name
  ,                                       !- Design Zone Air Distribution Effectiveness in Cooling Mode
  ,                                       !- Design Zone Air Distribution Effectiveness in Heating Mode
  ,                                       !- Design Zone Secondary Recirculation Fraction {dimensionless}
  ,                                       !- Design Minimum Zone Ventilation Efficiency {dimensionless}
  Coincident;                             !- Sizing Option

OS:ZoneHVAC:EquipmentList,
  {8458f7cb-5127-435a-9a49-8da134a97de1}, !- Handle
  Zone HVAC Equipment List 1,             !- Name
  {4645940f-2552-495c-836b-f3d407afe2c9}, !- Thermal Zone
  ,                                       !- Load Distribution Scheme
  {5acd93a2-3243-4f3b-8945-ab4103aad7f9}, !- Zone Equipment 1
  1,                                      !- Zone Equipment Cooling Sequence 1
  1,                                      !- Zone Equipment Heating or No-Load Sequence 1
  {d9788c22-50d9-4bd5-a933-d28e218d94d3}, !- Zone Equipment Sequential Cooling Fraction Schedule Name 1
  {01c083d0-2f11-43b7-86e3-3fc99ddade88}; !- Zone Equipment Sequential Heating Fraction Schedule Name 1

OS:AdditionalProperties,
  {d41cfbd2-ed2e-4cd5-815e-78b5fba67760}, !- Handle
  {4645940f-2552-495c-836b-f3d407afe2c9}, !- Object Name
  ObjectType,                             !- Feature Name 1
  String,                                 !- Feature Data Type 1
  conditioned space;                      !- Feature Value 1

OS:Space,
  {1d4ef009-ed9c-4941-98c6-16ba9d58c848}, !- Handle
  conditioned space 1,                    !- Name
  ,                                       !- Space Type Name
  ,                                       !- Default Construction Set Name
  ,                                       !- Default Schedule Set Name
  ,                                       !- Direction of Relative North {deg}
  ,                                       !- X Origin {m}
  ,                                       !- Y Origin {m}
  ,                                       !- Z Origin {m}
  ,                                       !- Building Story Name
  {4645940f-2552-495c-836b-f3d407afe2c9}, !- Thermal Zone Name
  ,                                       !- Part of Total Floor Area
  ,                                       !- Design Specification Outdoor Air Object Name
  ,                                       !- Building Unit Name
  692.06373070848;                        !- Volume {m3}

OS:Schedule:Ruleset,
  {932d83ff-d6b1-40c0-a75a-a5a2b5ebbde2}, !- Handle
  heating setpoint,                       !- Name
  {5e40de40-7de6-45d4-a076-91a2c75f274b}, !- Schedule Type Limits Name
  {98d63851-eeb4-435b-a26a-877ad5cd2442}; !- Default Day Schedule Name

OS:Schedule:Day,
  {98d63851-eeb4-435b-a26a-877ad5cd2442}, !- Handle
  heating setpoint default day,           !- Name
  {5e40de40-7de6-45d4-a076-91a2c75f274b}, !- Schedule Type Limits Name
  ,                                       !- Interpolate to Timestep
  24,                                     !- Hour 1
  0,                                      !- Minute 1
  0;                                      !- Value Until Time 1

OS:Schedule:Rule,
  {bf5a827e-d0d5-490c-acb3-c8426067750c}, !- Handle
  heating setpoint allday rule,           !- Name
  {932d83ff-d6b1-40c0-a75a-a5a2b5ebbde2}, !- Schedule Ruleset Name
  0,                                      !- Rule Order
  {a759b0a6-353a-4763-bffe-3f3bc125051d}, !- Day Schedule Name
  Yes,                                    !- Apply Sunday
  Yes,                                    !- Apply Monday
  Yes,                                    !- Apply Tuesday
  Yes,                                    !- Apply Wednesday
  Yes,                                    !- Apply Thursday
  Yes,                                    !- Apply Friday
  Yes,                                    !- Apply Saturday
  DateRange,                              !- Date Specification Type
  1,                                      !- Start Month
  1,                                      !- Start Day
  12,                                     !- End Month
  31;                                     !- End Day

OS:Schedule:Day,
  {a759b0a6-353a-4763-bffe-3f3bc125051d}, !- Handle
  heating setpoint day,                   !- Name
  {5e40de40-7de6-45d4-a076-91a2c75f274b}, !- Schedule Type Limits Name
  ,                                       !- Interpolate to Timestep
  24,                                     !- Hour 1
  0,                                      !- Minute 1
  20;                                     !- Value Until Time 1

OS:Schedule:Ruleset,
  {1ec3e8ab-16e1-4941-b665-64ca78464529}, !- Handle
  cooling setpoint,                       !- Name
  {5e40de40-7de6-45d4-a076-91a2c75f274b}, !- Schedule Type Limits Name
  {d378da78-ae5d-4ecd-9680-7c5a9b4516ae}; !- Default Day Schedule Name

OS:Schedule:Day,
  {d378da78-ae5d-4ecd-9680-7c5a9b4516ae}, !- Handle
  cooling setpoint default day,           !- Name
  {5e40de40-7de6-45d4-a076-91a2c75f274b}, !- Schedule Type Limits Name
  ,                                       !- Interpolate to Timestep
  24,                                     !- Hour 1
  0,                                      !- Minute 1
  0;                                      !- Value Until Time 1

OS:Schedule:Rule,
  {9ec8c871-bcb1-4b27-8077-447fff26dd10}, !- Handle
  cooling setpoint allday rule,           !- Name
  {1ec3e8ab-16e1-4941-b665-64ca78464529}, !- Schedule Ruleset Name
  0,                                      !- Rule Order
  {63853f94-d142-4823-8d30-0ac265a69b22}, !- Day Schedule Name
  Yes,                                    !- Apply Sunday
  Yes,                                    !- Apply Monday
  Yes,                                    !- Apply Tuesday
  Yes,                                    !- Apply Wednesday
  Yes,                                    !- Apply Thursday
  Yes,                                    !- Apply Friday
  Yes,                                    !- Apply Saturday
  DateRange,                              !- Date Specification Type
  1,                                      !- Start Month
  1,                                      !- Start Day
  12,                                     !- End Month
  31;                                     !- End Day

OS:Schedule:Day,
  {63853f94-d142-4823-8d30-0ac265a69b22}, !- Handle
  cooling setpoint day,                   !- Name
  {5e40de40-7de6-45d4-a076-91a2c75f274b}, !- Schedule Type Limits Name
  ,                                       !- Interpolate to Timestep
  24,                                     !- Hour 1
  0,                                      !- Minute 1
  25.5555555555556;                       !- Value Until Time 1

OS:ThermostatSetpoint:DualSetpoint,
  {c0c34c1b-ae8e-4a7b-87d9-182bae8c89cd}, !- Handle
  conditioned space temperature setpoint, !- Name
  {932d83ff-d6b1-40c0-a75a-a5a2b5ebbde2}, !- Heating Setpoint Temperature Schedule Name
  {1ec3e8ab-16e1-4941-b665-64ca78464529}, !- Cooling Setpoint Temperature Schedule Name
  0;                                      !- Temperature Difference Between Cutout And Setpoint {deltaC}

OS:ScheduleTypeLimits,
  {5e40de40-7de6-45d4-a076-91a2c75f274b}, !- Handle
  Temperature,                            !- Name
  ,                                       !- Lower Limit Value
  ,                                       !- Upper Limit Value
  Continuous,                             !- Numeric Type
  Temperature;                            !- Unit Type

OS:Surface,
  {6f00979c-bd7a-41fb-b665-8c8a5d38195a}, !- Handle
  Roof1,                                  !- Name
  RoofCeiling,                            !- Surface Type
  {5bf7a67d-ebdc-4533-aa4f-c29d8279e60e}, !- Construction Name
  {55f247c0-284f-4cf2-9c33-a9bf53559da5}, !- Space Name
  Outdoors,                               !- Outside Boundary Condition
  ,                                       !- Outside Boundary Condition Object
  SunExposed,                             !- Sun Exposure
  WindExposed,                            !- Wind Exposure
  ,                                       !- View Factor to Ground
  ,                                       !- Number of Vertices
  -26.9347048849634, 58.0557891618865, 2.4384, !- X,Y,Z Vertex 1 {m}
  -26.9347048849634, 46.7895631136661, 8.0715130241102, !- X,Y,Z Vertex 2 {m}
  -14.3386812381136, 46.7895631136661, 8.0715130241102, !- X,Y,Z Vertex 3 {m}
  -14.3386812381136, 58.0557891618865, 2.4384; !- X,Y,Z Vertex 4 {m}

OS:AdditionalProperties,
  {ba927f0b-b9cb-4b92-a306-1fea6eba68f4}, !- Handle
  {6f00979c-bd7a-41fb-b665-8c8a5d38195a}, !- Object Name
  Length,                                 !- Feature Name 1
  Double,                                 !- Feature Data Type 1
  41.325536899113608,                     !- Feature Value 1
  Width,                                  !- Feature Name 2
  Double,                                 !- Feature Data Type 2
  41.325536899113601,                     !- Feature Value 2
  Azimuth,                                !- Feature Name 3
  Integer,                                !- Feature Data Type 3
  0,                                      !- Feature Value 3
  Tilt,                                   !- Feature Name 4
  Double,                                 !- Feature Data Type 4
  0.5,                                    !- Feature Value 4
  SurfaceType,                            !- Feature Name 5
  String,                                 !- Feature Data Type 5
  Roof;                                   !- Feature Value 5

OS:ThermalZone,
  {91424b37-bc14-4cd6-a7fa-f9764bcec306}, !- Handle
  attic - vented,                         !- Name
  1,                                      !- Multiplier
  ,                                       !- Ceiling Height {m}
  356.389957095237,                       !- Volume {m3}
  ,                                       !- Floor Area {m2}
  ,                                       !- Zone Inside Convection Algorithm
  ,                                       !- Zone Outside Convection Algorithm
  ,                                       !- Zone Conditioning Equipment List Name
  {77a4d09c-a7d2-4d5a-a01b-9e010176cf2f}, !- Zone Air Inlet Port List
  {241db0c2-300c-440c-8ef8-0a6c70828d9a}, !- Zone Air Exhaust Port List
  {cc409f0d-c718-4d12-8596-91db64f9aa0b}, !- Zone Air Node Name
  {6b1699a4-ccc0-4ee8-a60b-9d45940b14b9}, !- Zone Return Air Port List
  ,                                       !- Primary Daylighting Control Name
  ,                                       !- Fraction of Zone Controlled by Primary Daylighting Control
  ,                                       !- Secondary Daylighting Control Name
  ,                                       !- Fraction of Zone Controlled by Secondary Daylighting Control
  ,                                       !- Illuminance Map Name
  ,                                       !- Group Rendering Name
  ,                                       !- Thermostat Name
  No;                                     !- Use Ideal Air Loads

OS:Node,
  {71ccb4c2-9450-4504-86be-41e475908718}, !- Handle
  Node 2,                                 !- Name
  {cc409f0d-c718-4d12-8596-91db64f9aa0b}, !- Inlet Port
  ;                                       !- Outlet Port

OS:Connection,
  {cc409f0d-c718-4d12-8596-91db64f9aa0b}, !- Handle
  {91424b37-bc14-4cd6-a7fa-f9764bcec306}, !- Source Object
  11,                                     !- Outlet Port
  {71ccb4c2-9450-4504-86be-41e475908718}, !- Target Object
  2;                                      !- Inlet Port

OS:PortList,
  {77a4d09c-a7d2-4d5a-a01b-9e010176cf2f}, !- Handle
  {91424b37-bc14-4cd6-a7fa-f9764bcec306}; !- HVAC Component

OS:PortList,
  {241db0c2-300c-440c-8ef8-0a6c70828d9a}, !- Handle
  {91424b37-bc14-4cd6-a7fa-f9764bcec306}; !- HVAC Component

OS:PortList,
  {6b1699a4-ccc0-4ee8-a60b-9d45940b14b9}, !- Handle
  {91424b37-bc14-4cd6-a7fa-f9764bcec306}; !- HVAC Component

OS:Sizing:Zone,
  {27279165-913f-4b01-b176-67bc44f6e888}, !- Handle
  {91424b37-bc14-4cd6-a7fa-f9764bcec306}, !- Zone or ZoneList Name
  SupplyAirTemperature,                   !- Zone Cooling Design Supply Air Temperature Input Method
  14,                                     !- Zone Cooling Design Supply Air Temperature {C}
  11.11,                                  !- Zone Cooling Design Supply Air Temperature Difference {deltaC}
  SupplyAirTemperature,                   !- Zone Heating Design Supply Air Temperature Input Method
  40,                                     !- Zone Heating Design Supply Air Temperature {C}
  11.11,                                  !- Zone Heating Design Supply Air Temperature Difference {deltaC}
  0.0085,                                 !- Zone Cooling Design Supply Air Humidity Ratio {kg-H2O/kg-air}
  0.008,                                  !- Zone Heating Design Supply Air Humidity Ratio {kg-H2O/kg-air}
  ,                                       !- Zone Heating Sizing Factor
  ,                                       !- Zone Cooling Sizing Factor
  DesignDay,                              !- Cooling Design Air Flow Method
  ,                                       !- Cooling Design Air Flow Rate {m3/s}
  ,                                       !- Cooling Minimum Air Flow per Zone Floor Area {m3/s-m2}
  ,                                       !- Cooling Minimum Air Flow {m3/s}
  ,                                       !- Cooling Minimum Air Flow Fraction
  DesignDay,                              !- Heating Design Air Flow Method
  ,                                       !- Heating Design Air Flow Rate {m3/s}
  ,                                       !- Heating Maximum Air Flow per Zone Floor Area {m3/s-m2}
  ,                                       !- Heating Maximum Air Flow {m3/s}
  ,                                       !- Heating Maximum Air Flow Fraction
  No,                                     !- Account for Dedicated Outdoor Air System
  NeutralSupplyAir,                       !- Dedicated Outdoor Air System Control Strategy
  autosize,                               !- Dedicated Outdoor Air Low Setpoint Temperature for Design {C}
  autosize,                               !- Dedicated Outdoor Air High Setpoint Temperature for Design {C}
  Sensible Load Only No Latent Load,      !- Zone Load Sizing Method
  HumidityRatioDifference,                !- Zone Latent Cooling Design Supply Air Humidity Ratio Input Method
  ,                                       !- Zone Dehumidification Design Supply Air Humidity Ratio {kgWater/kgDryAir}
  0.005,                                  !- Zone Cooling Design Supply Air Humidity Ratio Difference {kgWater/kgDryAir}
  HumidityRatioDifference,                !- Zone Latent Heating Design Supply Air Humidity Ratio Input Method
  ,                                       !- Zone Humidification Design Supply Air Humidity Ratio {kgWater/kgDryAir}
  0.005,                                  !- Zone Humidification Design Supply Air Humidity Ratio Difference {kgWater/kgDryAir}
  ,                                       !- Zone Humidistat Dehumidification Set Point Schedule Name
  ,                                       !- Zone Humidistat Humidification Set Point Schedule Name
  ,                                       !- Design Zone Air Distribution Effectiveness in Cooling Mode
  ,                                       !- Design Zone Air Distribution Effectiveness in Heating Mode
  ,                                       !- Design Zone Secondary Recirculation Fraction {dimensionless}
  ,                                       !- Design Minimum Zone Ventilation Efficiency {dimensionless}
  Coincident;                             !- Sizing Option

OS:ZoneHVAC:EquipmentList,
  {43b26034-7337-4fa1-9965-a9e2fdef3f8a}, !- Handle
  Zone HVAC Equipment List 2,             !- Name
  {91424b37-bc14-4cd6-a7fa-f9764bcec306}; !- Thermal Zone

OS:AdditionalProperties,
  {8026ab0c-bf73-4584-9558-488eb74f0af8}, !- Handle
  {91424b37-bc14-4cd6-a7fa-f9764bcec306}, !- Object Name
  ObjectType,                             !- Feature Name 1
  String,                                 !- Feature Data Type 1
  attic - vented;                         !- Feature Value 1

OS:Space,
  {55f247c0-284f-4cf2-9c33-a9bf53559da5}, !- Handle
  attic - vented 1,                       !- Name
  ,                                       !- Space Type Name
  ,                                       !- Default Construction Set Name
  ,                                       !- Default Schedule Set Name
  ,                                       !- Direction of Relative North {deg}
  ,                                       !- X Origin {m}
  ,                                       !- Y Origin {m}
  ,                                       !- Z Origin {m}
  ,                                       !- Building Story Name
  {91424b37-bc14-4cd6-a7fa-f9764bcec306}, !- Thermal Zone Name
  ,                                       !- Part of Total Floor Area
  ,                                       !- Design Specification Outdoor Air Object Name
  ,                                       !- Building Unit Name
  356.389957095237;                       !- Volume {m3}

OS:Material,
  {c43d8cf6-30f6-4b1c-a383-921056577585}, !- Handle
  asphalt or fiberglass shingles,         !- Name
  Rough,                                  !- Roughness
  0.00635,                                !- Thickness {m}
  0.162714,                               !- Conductivity {W/m-K}
  1121.4,                                 !- Density {kg/m3}
  1465.45,                                !- Specific Heat {J/kg-K}
  0.9,                                    !- Thermal Absorptance
  0.85,                                   !- Solar Absorptance