
OS:Version,
  {2beda6a3-6e14-4b98-bfa0-e028d0ae1082}, !- Handle
  3.10.0;                                 !- Version Identifier

OS:SimulationControl,
  {78d41620-029d-41a5-b95f-1dd278955a09}, !- Handle
  ,                                       !- Do Zone Sizing Calculation
  ,                                       !- Do System Sizing Calculation
  ,                                       !- Do Plant Sizing Calculation
  No;                                     !- Run Simulation for Sizing Periods

OS:Timestep,
  {acdd7936-cdda-47a7-a2f9-ff7b79fbd426}, !- Handle
  1;                                      !- Number of Timesteps per Hour

OS:ShadowCalculation,
  {6f27352c-0707-454a-be3b-522e9d6addcb}, !- Handle
  PolygonClipping,                        !- Shading Calculation Method
  ,                                       !- Shading Calculation Update Frequency Method
  20,                                     !- Shading Calculation Update Frequency
  200,                                    !- Maximum Figures in Shadow Overlap Calculations
  ,                                       !- Polygon Clipping Algorithm
  512,                                    !- Pixel Counting Resolution
  ,                                       !- Sky Diffuse Modeling Algorithm
  No,                                     !- Output External Shading Calculation Results
  No,                                     !- Disable Self-Shading Within Shading Zone Groups
  No;                                     !- Disable Self-Shading From Shading Zone Groups to Other Zones

OS:SurfaceConvectionAlgorithm:Outside,
  {2e618ebb-5815-4f63-8438-c8531368f153}, !- Handle
  DOE-2;                                  !- Algorithm

OS:SurfaceConvectionAlgorithm:Inside,
  {bb1473c9-03c4-4e37-b9a5-fc91a87a1483}, !- Handle
  TARP;                                   !- Algorithm

OS:ZoneCapacitanceMultiplier:ResearchSpecial,
  {d074003b-a724-4c3d-ac33-375068c7d5f2}, !- Handle
  7,                                      !- Temperature Capacity Multiplier
  15,                                     !- Humidity Capacity Multiplier
  ;                                       !- Carbon Dioxide Capacity Multiplier

OS:ConvergenceLimits,
  {5afc1f16-fe64-4e1b-8f97-4e943c4164f8}, !- Handle
  0;                                      !- Minimum System Timestep {minutes}

OS:RunPeriod,
  {9d3b982e-cd85-4bfc-add1-eafc45b89a80}, !- Handle
  Run Period 1,                           !- Name
  1,                                      !- Begin Month
  1,                                      !- Begin Day of Month
  12,                                     !- End Month
  31,                                     !- End Day of Month
  ,                                       !- Use Weather File Holidays and Special Days
  ,                                       !- Use Weather File Daylight Saving Period
  ,                                       !- Apply Weekend Holiday Rule
  ,                                       !- Use Weather File Rain Indicators
  ,                                       !- Use Weather File Snow Indicators
  ;                                       !- Number of Times Runperiod to be Repeated

OS:PerformancePrecisionTradeoffs,
  {6a339f6a-af75-4b43-9021-09ef74c6547c}, !- Handle
  ,                                       !- Use Coil Direct Solutions
  CarrollMRT;                             !- Zone Radiant Exchange Algorithm

OS:WeatherFile,
  {ca75f7de-a959-427b-812e-c25715310657}, !- Handle
  Buffalo Niagara Intl Ap,                !- City
  NY,                                     !- State Province Region
  USA,                                    !- Country
  TMY3,                                   !- Data Source
  725280,                                 !- WMO Number
  42.93,                                  !- Latitude {deg}
  -78.73,                                 !- Longitude {deg}
  -5,                                     !- Time Zone {hr}
  215,                                    !- Elevation {m}
  /Users/nmoore/github/urbanopt-example-geojson-project/example_project/weather/USA_NY_Buffalo-Greater.Buffalo.Intl.AP.725280_TMY3.epw, !- Url
  6B50E0FF,                               !- Checksum
  ,                                       !- Start Date Actual Year
  Sunday;                                 !- Start Day of Week

OS:YearDescription,
  {287a7661-c030-4868-8709-bb9a152e8d38}, !- Handle
  2007,                                   !- Calendar Year
  ,                                       !- Day of Week for Start Day
  ;                                       !- Is Leap Year

OS:Site,
  {ce137576-a0dc-44d6-afa4-eea5690ed00f}, !- Handle
  Buffalo Niagara Intl Ap_NY,             !- Name
  42.93,                                  !- Latitude {deg}
  -78.73,                                 !- Longitude {deg}
  -5,                                     !- Time Zone {hr}
  215,                                    !- Elevation {m}
  Suburbs,                                !- Terrain
  Yes;                                    !- Keep Site Location Information

OS:RunPeriodControl:DaylightSavingTime,
  {bc845198-9e83-4182-8850-61a6a55208d0}, !- Handle
  Mar 12,                                 !- Start Date
  Nov 5;                                  !- End Date

OS:Site:GroundTemperature:Shallow,
  {854a262c-76ec-4e4c-ba8d-56d43bffac3c}, !- Handle
  4.30207395723828,                       !- January Surface Ground Temperature {C}
  2.29327249652502,                       !- February Surface Ground Temperature {C}
  2.13240047156047,                       !- March Surface Ground Temperature {C}
  3.08567940719286,                       !- April Surface Ground Temperature {C}
  6.91256312497526,                       !- May Surface Ground Temperature {C}
  10.7216195949507,                       !- June Surface Ground Temperature {C}
  14.0238679822574,                       !- July Surface Ground Temperature {C}
  16.1157611184724,                       !- August Surface Ground Temperature {C}
  16.2934789303462,                       !- September Surface Ground Temperature {C}
  14.5920754632847,                       !- October Surface Ground Temperature {C}
  11.374036348653,                        !- November Surface Ground Temperature {C}
  7.68182621661674;                       !- December Surface Ground Temperature {C}

OS:ThermalZone,
  {e01906b9-ec92-417e-8fc4-1024dda2de6e}, !- Handle
  conditioned space,                      !- Name
  1,                                      !- Multiplier
  ,                                       !- Ceiling Height {m}
  692.06373070848,                        !- Volume {m3}
  ,                                       !- Floor Area {m2}
  ,                                       !- Zone Inside Convection Algorithm
  ,                                       !- Zone Outside Convection Algorithm
  ,                                       !- Zone Conditioning Equipment List Name
  {b6a86746-b13f-4d9d-9b68-2d308882bda2}, !- Zone Air Inlet Port List
  {81dcbb7a-e98d-4095-81e8-7f108e0b1720}, !- Zone Air Exhaust Port List
  {a25103e1-b0e4-4b8a-af86-6638d7b9516f}, !- Zone Air Node Name
  {ba189e69-277a-457b-bcd8-f9813f99f6b7}, !- Zone Return Air Port List
  ,                                       !- Primary Daylighting Control Name
  ,                                       !- Fraction of Zone Controlled by Primary Daylighting Control
  ,                                       !- Secondary Daylighting Control Name
  ,                                       !- Fraction of Zone Controlled by Secondary Daylighting Control
  ,                                       !- Illuminance Map Name
  ,                                       !- Group Rendering Name
  {e5d52a6e-da2b-4ba5-848e-7817b88dddea}, !- Thermostat Name
  No;                                     !- Use Ideal Air Loads

OS:Node,
  {10e16e9a-47df-4805-8452-02f73a303335}, !- Handle
  Node 1,                                 !- Name
  {a25103e1-b0e4-4b8a-af86-6638d7b9516f}, !- Inlet Port
  ;                                       !- Outlet Port

OS:Connection,
  {a25103e1-b0e4-4b8a-af86-6638d7b9516f}, !- Handle
  {e01906b9-ec92-417e-8fc4-1024dda2de6e}, !- Source Object
  11,                                     !- Outlet Port
  {10e16e9a-47df-4805-8452-02f73a303335}, !- Target Object
  2;                                      !- Inlet Port

OS:PortList,
  {b6a86746-b13f-4d9d-9b68-2d308882bda2}, !- Handle
  {e01906b9-ec92-417e-8fc4-1024dda2de6e}, !- HVAC Component
  {ccb538e3-d0a5-4efd-b74e-b9801c5ddabe}; !- Port 1

OS:PortList,
  {81dcbb7a-e98d-4095-81e8-7f108e0b1720}, !- Handle
  {e01906b9-ec92-417e-8fc4-1024dda2de6e}; !- HVAC Component

OS:PortList,
  {ba189e69-277a-457b-bcd8-f9813f99f6b7}, !- Handle
  {e01906b9-ec92-417e-8fc4-1024dda2de6e}, !- HVAC Component
  {b6c0f9e6-f60a-474b-a11c-6f35dc9f9686}; !- Port 1

OS:Sizing:Zone,
  {891cd0e0-fffb-48a2-a95b-2eb3c5727ef8}, !- Handle
  {e01906b9-ec92-417e-8fc4-1024dda2de6e}, !- Zone or ZoneList Name
  SupplyAirTemperature,                   !- Zone Cooling Design Supply Air Temperature Input Method
  14,                                     !- Zone Cooling Design Supply Air Temperature {C}
  11.11,                                  !- Zone Cooling Design Supply Air Temperature Difference {deltaC}
  SupplyAirTemperature,                   !- Zone Heating Design Supply Air Temperature Input Method
  40,                                     !- Zone Heating Design Supply Air Temperature {C}
  11.11,                                  !- Zone Heating Design Supply Air Temperature Difference {deltaC}
  0.0085,                                 !- Zone Cooling Design Supply Air Humidity Ratio {kg-H2O/kg-air}
  0.008,                                  !- Zone Heating Design Supply Air Humidity Ratio {kg-H2O/kg-air}
  ,                                       !- Zone Heating Sizing Factor
  ,                                       !- Zone Cooling Sizing Factor
  DesignDay,                              !- Cooling Design Air Flow Method
  ,                                       !- Cooling Design Air Flow Rate {m3/s}
  ,                                       !- Cooling Minimum Air Flow per Zone Floor Area {m3/s-m2}
  ,                                       !- Cooling Minimum Air Flow {m3/s}
  ,                                       !- Cooling Minimum Air Flow Fraction
  DesignDay,                              !- Heating Design Air Flow Method
  ,                                       !- Heating Design Air Flow Rate {m3/s}
  ,                                       !- Heating Maximum Air Flow per Zone Floor Area {m3/s-m2}
  ,                                       !- Heating Maximum Air Flow {m3/s}
  ,                                       !- Heating Maximum Air Flow Fraction
  No,                                     !- Account for Dedicated Outdoor Air System
  NeutralSupplyAir,                       !- Dedicated Outdoor Air System Control Strategy
  autosize,                               !- Dedicated Outdoor Air Low Setpoint Temperature for Design {C}
  autosize,                               !- Dedicated Outdoor Air High Setpoint Temperature for Design {C}
  Sensible Load Only No Latent Load,      !- Zone Load Sizing Method
  HumidityRatioDifference,                !- Zone Latent Cooling Design Supply Air Humidity Ratio Input Method
  ,                                       !- Zone Dehumidification Design Supply Air Humidity Ratio {kgWater/kgDryAir}
  0.005,                                  !- Zone Cooling Design Supply Air Humidity Ratio Difference {kgWater/kgDryAir}
  HumidityRatioDifference,                !- Zone Latent Heating Design Supply Air Humidity Ratio Input Method
  ,                                       !- Zone Humidification Design Supply Air Humidity Ratio {kgWater/kgDryAir}
  0.005,                                  !- Zone Humidification Design Supply Air Humidity Ratio Difference {kgWater/kgDryAir}
  ,                                       !- Zone Humidistat Dehumidification Set Point Schedule Name
  ,                                       !- Zone Humidistat Humidification Set Point Schedule Name
  ,                                       !- Design Zone Air Distribution Effectiveness in Cooling Mode
  ,                                       !- Design Zone Air Distribution Effectiveness in Heating Mode
  ,                                       !- Design Zone Secondary Recirculation Fraction {dimensionless}
  ,                                       !- Design Minimum Zone Ventilation Efficiency {dimensionless}
  Coincident;                             !- Sizing Option

OS:ZoneHVAC:EquipmentList,
  {50ef17f9-50de-4898-b76a-d05ce28bf957}, !- Handle
  Zone HVAC Equipment List 1,             !- Name
  {e01906b9-ec92-417e-8fc4-1024dda2de6e}, !- Thermal Zone
  ,                                       !- Load Distribution Scheme
  {0563c3d8-68a7-4486-be2f-d4e4461d9b67}, !- Zone Equipment 1
  1,                                      !- Zone Equipment Cooling Sequence 1
  1,                                      !- Zone Equipment Heating or No-Load Sequence 1
  {3df3978a-736d-4373-ae98-aed68490f711}, !- Zone Equipment Sequential Cooling Fraction Schedule Name 1
  {26efdfc5-ecdd-4d8d-a27f-921a4589cc3f}; !- Zone Equipment Sequential Heating Fraction Schedule Name 1

OS:AdditionalProperties,
  {4bb62574-90dc-4544-94a0-12ebbbe96b67}, !- Handle
  {e01906b9-ec92-417e-8fc4-1024dda2de6e}, !- Object Name
  ObjectType,                             !- Feature Name 1
  String,                                 !- Feature Data Type 1
  conditioned space;                      !- Feature Value 1

OS:Space,
  {0c6bd9a0-082c-49c4-a5ef-2834cbed72fc}, !- Handle
  conditioned space 1,                    !- Name
  ,                                       !- Space Type Name
  ,                                       !- Default Construction Set Name
  ,                                       !- Default Schedule Set Name
  ,                                       !- Direction of Relative North {deg}
  ,                                       !- X Origin {m}
  ,                                       !- Y Origin {m}
  ,                                       !- Z Origin {m}
  ,                                       !- Building Story Name
  {e01906b9-ec92-417e-8fc4-1024dda2de6e}, !- Thermal Zone Name
  ,                                       !- Part of Total Floor Area
  ,                                       !- Design Specification Outdoor Air Object Name
  ,                                       !- Building Unit Name
  692.06373070848;                        !- Volume {m3}

OS:Schedule:Ruleset,
  {8d3b5dde-f3c1-4f6b-95bf-b30a040d14a2}, !- Handle
  heating setpoint,                       !- Name
  {2c08bb9f-de71-4235-ba5d-5354b876fbdd}, !- Schedule Type Limits Name
  {a49d457f-7820-47a1-9fdd-4dc51e1a29d5}; !- Default Day Schedule Name

OS:Schedule:Day,
  {a49d457f-7820-47a1-9fdd-4dc51e1a29d5}, !- Handle
  heating setpoint default day,           !- Name
  {2c08bb9f-de71-4235-ba5d-5354b876fbdd}, !- Schedule Type Limits Name
  ,                                       !- Interpolate to Timestep
  24,                                     !- Hour 1
  0,                                      !- Minute 1
  0;                                      !- Value Until Time 1

OS:Schedule:Rule,
  {08c19b60-4f41-42ba-9504-742358b81f35}, !- Handle
  heating setpoint allday rule,           !- Name
  {8d3b5dde-f3c1-4f6b-95bf-b30a040d14a2}, !- Schedule Ruleset Name
  0,                                      !- Rule Order
  {914acc5d-5e7a-4447-b98d-2cd1549ea381}, !- Day Schedule Name
  Yes,                                    !- Apply Sunday
  Yes,                                    !- Apply Monday
  Yes,                                    !- Apply Tuesday
  Yes,                                    !- Apply Wednesday
  Yes,                                    !- Apply Thursday
  Yes,                                    !- Apply Friday
  Yes,                                    !- Apply Saturday
  DateRange,                              !- Date Specification Type
  1,                                      !- Start Month
  1,                                      !- Start Day
  12,                                     !- End Month
  31;                                     !- End Day

OS:Schedule:Day,
  {914acc5d-5e7a-4447-b98d-2cd1549ea381}, !- Handle
  heating setpoint day,                   !- Name
  {2c08bb9f-de71-4235-ba5d-5354b876fbdd}, !- Schedule Type Limits Name
  ,                                       !- Interpolate to Timestep
  24,                                     !- Hour 1
  0,                                      !- Minute 1
  20;                                     !- Value Until Time 1

OS:Schedule:Ruleset,
  {8056d673-7227-4e5b-94e3-ef5fb77beb76}, !- Handle
  cooling setpoint,                       !- Name
  {2c08bb9f-de71-4235-ba5d-5354b876fbdd}, !- Schedule Type Limits Name
  {b38eab4a-7c01-411a-90e2-13cf6a6e4c38}; !- Default Day Schedule Name

OS:Schedule:Day,
  {b38eab4a-7c01-411a-90e2-13cf6a6e4c38}, !- Handle
  cooling setpoint default day,           !- Name
  {2c08bb9f-de71-4235-ba5d-5354b876fbdd}, !- Schedule Type Limits Name
  ,                                       !- Interpolate to Timestep
  24,                                     !- Hour 1
  0,                                      !- Minute 1
  0;                                      !- Value Until Time 1

OS:Schedule:Rule,
  {22e972f4-802a-46e5-a7a4-46f84ea6117d}, !- Handle
  cooling setpoint allday rule,           !- Name
  {8056d673-7227-4e5b-94e3-ef5fb77beb76}, !- Schedule Ruleset Name
  0,                                      !- Rule Order
  {4a1dfcb7-7d24-4617-94f6-2342249a28da}, !- Day Schedule Name
  Yes,                                    !- Apply Sunday
  Yes,                                    !- Apply Monday
  Yes,                                    !- Apply Tuesday
  Yes,                                    !- Apply Wednesday
  Yes,                                    !- Apply Thursday
  Yes,                                    !- Apply Friday
  Yes,                                    !- Apply Saturday
  DateRange,                              !- Date Specification Type
  1,                                      !- Start Month
  1,                                      !- Start Day
  12,                                     !- End Month
  31;                                     !- End Day

OS:Schedule:Day,
  {4a1dfcb7-7d24-4617-94f6-2342249a28da}, !- Handle
  cooling setpoint day,                   !- Name
  {2c08bb9f-de71-4235-ba5d-5354b876fbdd}, !- Schedule Type Limits Name
  ,                                       !- Interpolate to Timestep
  24,                                     !- Hour 1
  0,                                      !- Minute 1
  25.5555555555556;                       !- Value Until Time 1

OS:ThermostatSetpoint:DualSetpoint,
  {e5d52a6e-da2b-4ba5-848e-7817b88dddea}, !- Handle
  conditioned space temperature setpoint, !- Name
  {8d3b5dde-f3c1-4f6b-95bf-b30a040d14a2}, !- Heating Setpoint Temperature Schedule Name
  {8056d673-7227-4e5b-94e3-ef5fb77beb76}, !- Cooling Setpoint Temperature Schedule Name
  0;                                      !- Temperature Difference Between Cutout And Setpoint {deltaC}

OS:ScheduleTypeLimits,
  {2c08bb9f-de71-4235-ba5d-5354b876fbdd}, !- Handle
  Temperature,                            !- Name
  ,                                       !- Lower Limit Value
  ,                                       !- Upper Limit Value
  Continuous,                             !- Numeric Type
  Temperature;                            !- Unit Type

OS:Surface,
  {04e7b668-c9c7-4f81-9a38-cf96f9acd3a4}, !- Handle
  Roof1,                                  !- Name
  RoofCeiling,                            !- Surface Type
  {1627c13b-02e0-4f89-ada8-a67e3747baf4}, !- Construction Name
  {58e60680-6d3d-49cd-b65f-a36df02c1d65}, !- Space Name
  Outdoors,                               !- Outside Boundary Condition
  ,                                       !- Outside Boundary Condition Object
  SunExposed,                             !- Sun Exposure
  WindExposed,                            !- Wind Exposure
  ,                                       !- View Factor to Ground
  ,                                       !- Number of Vertices
  -26.9347048849634, 58.0557891618865, 2.4384, !- X,Y,Z Vertex 1 {m}
  -26.9347048849634, 46.7895631136661, 8.0715130241102, !- X,Y,Z Vertex 2 {m}
  -14.3386812381136, 46.7895631136661, 8.0715130241102, !- X,Y,Z Vertex 3 {m}
  -14.3386812381136, 58.0557891618865, 2.4384; !- X,Y,Z Vertex 4 {m}

OS:AdditionalProperties,
  {76e53519-bc76-4f05-99d8-944eddd4f123}, !- Handle
  {04e7b668-c9c7-4f81-9a38-cf96f9acd3a4}, !- Object Name
  Length,                                 !- Feature Name 1
  Double,                                 !- Feature Data Type 1
  41.325536899113608,                     !- Feature Value 1
  Width,                                  !- Feature Name 2
  Double,                                 !- Feature Data Type 2
  41.325536899113601,                     !- Feature Value 2
  Azimuth,                                !- Feature Name 3
  Integer,                                !- Feature Data Type 3
  0,                                      !- Feature Value 3
  Tilt,                                   !- Feature Name 4
  Double,                                 !- Feature Data Type 4
  0.5,                                    !- Feature Value 4
  SurfaceType,                            !- Feature Name 5
  String,                                 !- Feature Data Type 5
  Roof;                                   !- Feature Value 5

OS:ThermalZone,
  {07357b97-c7d7-4033-aaa3-c05bf2b5eaa6}, !- Handle
  attic - vented,                         !- Name
  1,                                      !- Multiplier
  ,                                       !- Ceiling Height {m}
  356.390921899745,                       !- Volume {m3}
  ,                                       !- Floor Area {m2}
  ,                                       !- Zone Inside Convection Algorithm
  ,                                       !- Zone Outside Convection Algorithm
  ,                                       !- Zone Conditioning Equipment List Name
  {e38b6f8d-e040-4903-b18a-a666b4126792}, !- Zone Air Inlet Port List
  {272d6a04-89d1-4b8f-82d1-17452c955cb2}, !- Zone Air Exhaust Port List
  {6af3c084-3c8e-4c62-af97-b5278dedeb5c}, !- Zone Air Node Name
  {1f845c02-28d4-4acd-ba35-115278851acb}, !- Zone Return Air Port List
  ,                                       !- Primary Daylighting Control Name
  ,                                       !- Fraction of Zone Controlled by Primary Daylighting Control
  ,                                       !- Secondary Daylighting Control Name
  ,                                       !- Fraction of Zone Controlled by Secondary Daylighting Control
  ,                                       !- Illuminance Map Name
  ,                                       !- Group Rendering Name
  ,                                       !- Thermostat Name
  No;                                     !- Use Ideal Air Loads

OS:Node,
  {08f76d8e-31b2-4771-8518-ad62bd61af57}, !- Handle
  Node 2,                                 !- Name
  {6af3c084-3c8e-4c62-af97-b5278dedeb5c}, !- Inlet Port
  ;                                       !- Outlet Port

OS:Connection,
  {6af3c084-3c8e-4c62-af97-b5278dedeb5c}, !- Handle
  {07357b97-c7d7-4033-aaa3-c05bf2b5eaa6}, !- Source Object
  11,                                     !- Outlet Port
  {08f76d8e-31b2-4771-8518-ad62bd61af57}, !- Target Object
  2;                                      !- Inlet Port

OS:PortList,
  {e38b6f8d-e040-4903-b18a-a666b4126792}, !- Handle
  {07357b97-c7d7-4033-aaa3-c05bf2b5eaa6}; !- HVAC Component

OS:PortList,
  {272d6a04-89d1-4b8f-82d1-17452c955cb2}, !- Handle
  {07357b97-c7d7-4033-aaa3-c05bf2b5eaa6}; !- HVAC Component

OS:PortList,
  {1f845c02-28d4-4acd-ba35-115278851acb}, !- Handle
  {07357b97-c7d7-4033-aaa3-c05bf2b5eaa6}; !- HVAC Component

OS:Sizing:Zone,
  {4b669a58-cab7-495b-9f0a-df872872b751}, !- Handle
  {07357b97-c7d7-4033-aaa3-c05bf2b5eaa6}, !- Zone or ZoneList Name
  SupplyAirTemperature,                   !- Zone Cooling Design Supply Air Temperature Input Method
  14,                                     !- Zone Cooling Design Supply Air Temperature {C}
  11.11,                                  !- Zone Cooling Design Supply Air Temperature Difference {deltaC}
  SupplyAirTemperature,                   !- Zone Heating Design Supply Air Temperature Input Method
  40,                                     !- Zone Heating Design Supply Air Temperature {C}
  11.11,                                  !- Zone Heating Design Supply Air Temperature Difference {deltaC}
  0.0085,                                 !- Zone Cooling Design Supply Air Humidity Ratio {kg-H2O/kg-air}
  0.008,                                  !- Zone Heating Design Supply Air Humidity Ratio {kg-H2O/kg-air}
  ,                                       !- Zone Heating Sizing Factor
  ,                                       !- Zone Cooling Sizing Factor
  DesignDay,                              !- Cooling Design Air Flow Method
  ,                                       !- Cooling Design Air Flow Rate {m3/s}
  ,                                       !- Cooling Minimum Air Flow per Zone Floor Area {m3/s-m2}
  ,                                       !- Cooling Minimum Air Flow {m3/s}
  ,                                       !- Cooling Minimum Air Flow Fraction
  DesignDay,                              !- Heating Design Air Flow Method
  ,                                       !- Heating Design Air Flow Rate {m3/s}
  ,                                       !- Heating Maximum Air Flow per Zone Floor Area {m3/s-m2}
  ,                                       !- Heating Maximum Air Flow {m3/s}
  ,                                       !- Heating Maximum Air Flow Fraction
  No,                                     !- Account for Dedicated Outdoor Air System
  NeutralSupplyAir,                       !- Dedicated Outdoor Air System Control Strategy
  autosize,                               !- Dedicated Outdoor Air Low Setpoint Temperature for Design {C}
  autosize,                               !- Dedicated Outdoor Air High Setpoint Temperature for Design {C}
  Sensible Load Only No Latent Load,      !- Zone Load Sizing Method
  HumidityRatioDifference,                !- Zone Latent Cooling Design Supply Air Humidity Ratio Input Method
  ,                                       !- Zone Dehumidification Design Supply Air Humidity Ratio {kgWater/kgDryAir}
  0.005,                                  !- Zone Cooling Design Supply Air Humidity Ratio Difference {kgWater/kgDryAir}
  HumidityRatioDifference,                !- Zone Latent Heating Design Supply Air Humidity Ratio Input Method
  ,                                       !- Zone Humidification Design Supply Air Humidity Ratio {kgWater/kgDryAir}
  0.005,                                  !- Zone Humidification Design Supply Air Humidity Ratio Difference {kgWater/kgDryAir}
  ,                                       !- Zone Humidistat Dehumidification Set Point Schedule Name
  ,                                       !- Zone Humidistat Humidification Set Point Schedule Name
  ,                                       !- Design Zone Air Distribution Effectiveness in Cooling Mode
  ,                                       !- Design Zone Air Distribution Effectiveness in Heating Mode
  ,                                       !- Design Zone Secondary Recirculation Fraction {dimensionless}
  ,                                       !- Design Minimum Zone Ventilation Efficiency {dimensionless}
  Coincident;                             !- Sizing Option

OS:ZoneHVAC:EquipmentList,
  {d141819b-72a1-40e6-9d0b-16c37386e99c}, !- Handle
  Zone HVAC Equipment List 2,             !- Name
  {07357b97-c7d7-4033-aaa3-c05bf2b5eaa6}; !- Thermal Zone

OS:AdditionalProperties,
  {5f7e6ab6-8ca0-406c-9c94-ef4646686ca2}, !- Handle
  {07357b97-c7d7-4033-aaa3-c05bf2b5eaa6}, !- Object Name
  ObjectType,                             !- Feature Name 1
  String,                                 !- Feature Data Type 1
  attic - vented;                         !- Feature Value 1

OS:Space,
  {58e60680-6d3d-49cd-b65f-a36df02c1d65}, !- Handle
  attic - vented 1,                       !- Name
  ,                                       !- Space Type Name
  ,                                       !- Default Construction Set Name
  ,                                       !- Default Schedule Set Name
  ,                                       !- Direction of Relative North {deg}
  ,                                       !- X Origin {m}
  ,                                       !- Y Origin {m}
  ,                                       !- Z Origin {m}
  ,                                       !- Building Story Name
  {07357b97-c7d7-4033-aaa3-c05bf2b5eaa6}, !- Thermal Zone Name
  ,                                       !- Part of Total Floor Area
  ,                                       !- Design Specification Outdoor Air Object Name
  ,                                       !- Building Unit Name
  356.390921899745;                       !- Volume {m3}

OS:Material,
  {ed8b3f4f-2941-47e0-b17b-d124e78d4248}, !- Handle
  asphalt or fiberglass shingles,         !- Name
  Rough,                                  !- Roughness
  0.00635,                                !- Thickness {m}
  0.162714,                               !- Conductivity {W/m-K}
  1121.4,                                 !- Density {kg/m3}
  1465.45,                                !- Specific Heat {J/kg-K}
  0.9,                                    !- Thermal Absorptance
  0.85,                                   !- Solar Absorptance