
OS:Version,
  {532b2876-5dec-4972-927c-4590c4dbca8f}, !- Handle
  3.10.0;                                 !- Version Identifier

OS:SimulationControl,
  {8ee413bb-deff-443e-9cb1-a6cc616a986b}, !- Handle
  ,                                       !- Do Zone Sizing Calculation
  ,                                       !- Do System Sizing Calculation
  ,                                       !- Do Plant Sizing Calculation
  No;                                     !- Run Simulation for Sizing Periods

OS:Timestep,
  {4566ce4c-4a66-46ae-9a28-0e3811d22824}, !- Handle
  1;                                      !- Number of Timesteps per Hour

OS:ShadowCalculation,
  {159dda8b-4c17-4b7a-a425-0d77ed821530}, !- Handle
  PolygonClipping,                        !- Shading Calculation Method
  ,                                       !- Shading Calculation Update Frequency Method
  20,                                     !- Shading Calculation Update Frequency
  200,                                    !- Maximum Figures in Shadow Overlap Calculations
  ,                                       !- Polygon Clipping Algorithm
  512,                                    !- Pixel Counting Resolution
  ,                                       !- Sky Diffuse Modeling Algorithm
  No,                                     !- Output External Shading Calculation Results
  No,                                     !- Disable Self-Shading Within Shading Zone Groups
  No;                                     !- Disable Self-Shading From Shading Zone Groups to Other Zones

OS:SurfaceConvectionAlgorithm:Outside,
  {12d2f3a8-7fc1-45b3-a452-c911e8f21d0d}, !- Handle
  DOE-2;                                  !- Algorithm

OS:SurfaceConvectionAlgorithm:Inside,
  {61e9bcf4-8cb0-4cd0-a264-a80a35d5718e}, !- Handle
  TARP;                                   !- Algorithm

OS:ZoneCapacitanceMultiplier:ResearchSpecial,
  {7e911a6c-5bab-419c-88be-995868e46e92}, !- Handle
  7,                                      !- Temperature Capacity Multiplier
  15,                                     !- Humidity Capacity Multiplier
  ;                                       !- Carbon Dioxide Capacity Multiplier

OS:ConvergenceLimits,
  {803b846d-d86a-47bb-bef3-b6adf9f537e1}, !- Handle
  0;                                      !- Minimum System Timestep {minutes}

OS:RunPeriod,
  {3d47f1b2-4f46-45b1-b25b-a409d366a694}, !- Handle
  Run Period 1,                           !- Name
  1,                                      !- Begin Month
  1,                                      !- Begin Day of Month
  12,                                     !- End Month
  31,                                     !- End Day of Month
  ,                                       !- Use Weather File Holidays and Special Days
  ,                                       !- Use Weather File Daylight Saving Period
  ,                                       !- Apply Weekend Holiday Rule
  ,                                       !- Use Weather File Rain Indicators
  ,                                       !- Use Weather File Snow Indicators
  ;                                       !- Number of Times Runperiod to be Repeated

OS:PerformancePrecisionTradeoffs,
  {401d705a-e919-429f-8708-ea54d25fc6bb}, !- Handle
  ,                                       !- Use Coil Direct Solutions
  CarrollMRT;                             !- Zone Radiant Exchange Algorithm

OS:WeatherFile,
  {7dc8cc0c-4ae4-4dc7-8906-9503c57f0978}, !- Handle
  Buffalo Niagara Intl Ap,                !- City
  NY,                                     !- State Province Region
  USA,                                    !- Country
  TMY3,                                   !- Data Source
  725280,                                 !- WMO Number
  42.93,                                  !- Latitude {deg}
  -78.73,                                 !- Longitude {deg}
  -5,                                     !- Time Zone {hr}
  215,                                    !- Elevation {m}
  /Users/nmoore/github/urbanopt-example-geojson-project/example_project/weather/USA_NY_Buffalo-Greater.Buffalo.Intl.AP.725280_TMY3.epw, !- Url
  6B50E0FF,                               !- Checksum
  ,                                       !- Start Date Actual Year
  Sunday;                                 !- Start Day of Week

OS:YearDescription,
  {a7c7e1c7-1c4d-450c-9c15-50b7b4071c37}, !- Handle
  2007,                                   !- Calendar Year
  ,                                       !- Day of Week for Start Day
  ;                                       !- Is Leap Year

OS:Site,
  {87f9b64b-5a1e-4893-87e9-bb93adde190d}, !- Handle
  Buffalo Niagara Intl Ap_NY,             !- Name
  42.93,                                  !- Latitude {deg}
  -78.73,                                 !- Longitude {deg}
  -5,                                     !- Time Zone {hr}
  215,                                    !- Elevation {m}
  Suburbs,                                !- Terrain
  Yes;                                    !- Keep Site Location Information

OS:RunPeriodControl:DaylightSavingTime,
  {9a2b1419-e835-4366-acc3-929bd213eb67}, !- Handle
  Mar 12,                                 !- Start Date
  Nov 5;                                  !- End Date

OS:Site:GroundTemperature:Shallow,
  {50a18d18-8ff8-405a-bc21-f73376a8715f}, !- Handle
  4.30207395723828,                       !- January Surface Ground Temperature {C}
  2.29327249652502,                       !- February Surface Ground Temperature {C}
  2.13240047156047,                       !- March Surface Ground Temperature {C}
  3.08567940719286,                       !- April Surface Ground Temperature {C}
  6.91256312497526,                       !- May Surface Ground Temperature {C}
  10.7216195949507,                       !- June Surface Ground Temperature {C}
  14.0238679822574,                       !- July Surface Ground Temperature {C}
  16.1157611184724,                       !- August Surface Ground Temperature {C}
  16.2934789303462,                       !- September Surface Ground Temperature {C}
  14.5920754632847,                       !- October Surface Ground Temperature {C}
  11.374036348653,                        !- November Surface Ground Temperature {C}
  7.68182621661674;                       !- December Surface Ground Temperature {C}

OS:ThermalZone,
  {ac9170fa-93a3-4210-b16b-81d7f2a8a0d7}, !- Handle
  conditioned space,                      !- Name
  1,                                      !- Multiplier
  ,                                       !- Ceiling Height {m}
  692.06373070848,                        !- Volume {m3}
  ,                                       !- Floor Area {m2}
  ,                                       !- Zone Inside Convection Algorithm
  ,                                       !- Zone Outside Convection Algorithm
  ,                                       !- Zone Conditioning Equipment List Name
  {5e0d4a8b-d3d2-48ff-84e7-5357b834d61a}, !- Zone Air Inlet Port List
  {0533ff9d-af8f-48e3-a06a-1b1ba1a1c580}, !- Zone Air Exhaust Port List
  {32e4fa51-0a60-4462-8ac2-56ce904b150d}, !- Zone Air Node Name
  {bcb1eeeb-887b-4f6b-abab-3a99cb962f90}, !- Zone Return Air Port List
  ,                                       !- Primary Daylighting Control Name
  ,                                       !- Fraction of Zone Controlled by Primary Daylighting Control
  ,                                       !- Secondary Daylighting Control Name
  ,                                       !- Fraction of Zone Controlled by Secondary Daylighting Control
  ,                                       !- Illuminance Map Name
  ,                                       !- Group Rendering Name
  {937d89c2-5ae6-409a-b8c9-00d5a4d0dda1}, !- Thermostat Name
  No;                                     !- Use Ideal Air Loads

OS:Node,
  {864f0728-5ec9-47a9-8ad4-98307a2256b5}, !- Handle
  Node 1,                                 !- Name
  {32e4fa51-0a60-4462-8ac2-56ce904b150d}, !- Inlet Port
  ;                                       !- Outlet Port

OS:Connection,
  {32e4fa51-0a60-4462-8ac2-56ce904b150d}, !- Handle
  {ac9170fa-93a3-4210-b16b-81d7f2a8a0d7}, !- Source Object
  11,                                     !- Outlet Port
  {864f0728-5ec9-47a9-8ad4-98307a2256b5}, !- Target Object
  2;                                      !- Inlet Port

OS:PortList,
  {5e0d4a8b-d3d2-48ff-84e7-5357b834d61a}, !- Handle
  {ac9170fa-93a3-4210-b16b-81d7f2a8a0d7}; !- HVAC Component

OS:PortList,
  {0533ff9d-af8f-48e3-a06a-1b1ba1a1c580}, !- Handle
  {ac9170fa-93a3-4210-b16b-81d7f2a8a0d7}; !- HVAC Component

OS:PortList,
  {bcb1eeeb-887b-4f6b-abab-3a99cb962f90}, !- Handle
  {ac9170fa-93a3-4210-b16b-81d7f2a8a0d7}; !- HVAC Component

OS:Sizing:Zone,
  {19c07693-b766-4df8-a5f4-867c9ce5b5cf}, !- Handle
  {ac9170fa-93a3-4210-b16b-81d7f2a8a0d7}, !- Zone or ZoneList Name
  SupplyAirTemperature,                   !- Zone Cooling Design Supply Air Temperature Input Method
  14,                                     !- Zone Cooling Design Supply Air Temperature {C}
  11.11,                                  !- Zone Cooling Design Supply Air Temperature Difference {deltaC}
  SupplyAirTemperature,                   !- Zone Heating Design Supply Air Temperature Input Method
  40,                                     !- Zone Heating Design Supply Air Temperature {C}
  11.11,                                  !- Zone Heating Design Supply Air Temperature Difference {deltaC}
  0.0085,                                 !- Zone Cooling Design Supply Air Humidity Ratio {kg-H2O/kg-air}
  0.008,                                  !- Zone Heating Design Supply Air Humidity Ratio {kg-H2O/kg-air}
  ,                                       !- Zone Heating Sizing Factor
  ,                                       !- Zone Cooling Sizing Factor
  DesignDay,                              !- Cooling Design Air Flow Method
  ,                                       !- Cooling Design Air Flow Rate {m3/s}
  ,                                       !- Cooling Minimum Air Flow per Zone Floor Area {m3/s-m2}
  ,                                       !- Cooling Minimum Air Flow {m3/s}
  ,                                       !- Cooling Minimum Air Flow Fraction
  DesignDay,                              !- Heating Design Air Flow Method
  ,                                       !- Heating Design Air Flow Rate {m3/s}
  ,                                       !- Heating Maximum Air Flow per Zone Floor Area {m3/s-m2}
  ,                                       !- Heating Maximum Air Flow {m3/s}
  ,                                       !- Heating Maximum Air Flow Fraction
  No,                                     !- Account for Dedicated Outdoor Air System
  NeutralSupplyAir,                       !- Dedicated Outdoor Air System Control Strategy
  autosize,                               !- Dedicated Outdoor Air Low Setpoint Temperature for Design {C}
  autosize,                               !- Dedicated Outdoor Air High Setpoint Temperature for Design {C}
  Sensible Load Only No Latent Load,      !- Zone Load Sizing Method
  HumidityRatioDifference,                !- Zone Latent Cooling Design Supply Air Humidity Ratio Input Method
  ,                                       !- Zone Dehumidification Design Supply Air Humidity Ratio {kgWater/kgDryAir}
  0.005,                                  !- Zone Cooling Design Supply Air Humidity Ratio Difference {kgWater/kgDryAir}
  HumidityRatioDifference,                !- Zone Latent Heating Design Supply Air Humidity Ratio Input Method
  ,                                       !- Zone Humidification Design Supply Air Humidity Ratio {kgWater/kgDryAir}
  0.005,                                  !- Zone Humidification Design Supply Air Humidity Ratio Difference {kgWater/kgDryAir}
  ,                                       !- Zone Humidistat Dehumidification Set Point Schedule Name
  ,                                       !- Zone Humidistat Humidification Set Point Schedule Name
  ,                                       !- Design Zone Air Distribution Effectiveness in Cooling Mode
  ,                                       !- Design Zone Air Distribution Effectiveness in Heating Mode
  ,                                       !- Design Zone Secondary Recirculation Fraction {dimensionless}
  ,                                       !- Design Minimum Zone Ventilation Efficiency {dimensionless}
  Coincident;                             !- Sizing Option

OS:ZoneHVAC:EquipmentList,
  {0a339183-d934-4a93-9014-2fd91b081264}, !- Handle
  Zone HVAC Equipment List 1,             !- Name
  {ac9170fa-93a3-4210-b16b-81d7f2a8a0d7}, !- Thermal Zone
  ,                                       !- Load Distribution Scheme
  {9e16030e-ba4e-4c89-b68f-8450204e96c3}, !- Zone Equipment 1
  1,                                      !- Zone Equipment Cooling Sequence 1
  1,                                      !- Zone Equipment Heating or No-Load Sequence 1
  {0027c8d5-852a-4387-9cce-d5853ce6bb7d}, !- Zone Equipment Sequential Cooling Fraction Schedule Name 1
  {3cac7e73-d2d2-43dd-be46-e8572bfd79fc}; !- Zone Equipment Sequential Heating Fraction Schedule Name 1

OS:AdditionalProperties,
  {c7c4dd83-3ba1-4f85-91b0-21d527482d3a}, !- Handle
  {ac9170fa-93a3-4210-b16b-81d7f2a8a0d7}, !- Object Name
  ObjectType,                             !- Feature Name 1
  String,                                 !- Feature Data Type 1
  conditioned space;                      !- Feature Value 1

OS:Space,
  {d493c274-68da-4cc1-badc-8969f7e6363a}, !- Handle
  conditioned space 1,                    !- Name
  ,                                       !- Space Type Name
  ,                                       !- Default Construction Set Name
  ,                                       !- Default Schedule Set Name
  ,                                       !- Direction of Relative North {deg}
  ,                                       !- X Origin {m}
  ,                                       !- Y Origin {m}
  ,                                       !- Z Origin {m}
  ,                                       !- Building Story Name
  {ac9170fa-93a3-4210-b16b-81d7f2a8a0d7}, !- Thermal Zone Name
  ,                                       !- Part of Total Floor Area
  ,                                       !- Design Specification Outdoor Air Object Name
  ,                                       !- Building Unit Name
  692.06373070848;                        !- Volume {m3}

OS:Schedule:Ruleset,
  {59b2335c-de03-458b-8820-cc35453e7ae6}, !- Handle
  heating setpoint,                       !- Name
  {799afd48-0391-4577-ab61-4ea07f14cdc9}, !- Schedule Type Limits Name
  {81d2c040-6f34-4d77-ab8d-216868c127b8}; !- Default Day Schedule Name

OS:Schedule:Day,
  {81d2c040-6f34-4d77-ab8d-216868c127b8}, !- Handle
  heating setpoint default day,           !- Name
  {799afd48-0391-4577-ab61-4ea07f14cdc9}, !- Schedule Type Limits Name
  ,                                       !- Interpolate to Timestep
  24,                                     !- Hour 1
  0,                                      !- Minute 1
  0;                                      !- Value Until Time 1

OS:Schedule:Rule,
  {42622055-a286-4866-89aa-738532fd8f16}, !- Handle
  heating setpoint allday rule,           !- Name
  {59b2335c-de03-458b-8820-cc35453e7ae6}, !- Schedule Ruleset Name
  0,                                      !- Rule Order
  {b32fbaae-2d55-45ce-8a1a-2eff8a25373e}, !- Day Schedule Name
  Yes,                                    !- Apply Sunday
  Yes,                                    !- Apply Monday
  Yes,                                    !- Apply Tuesday
  Yes,                                    !- Apply Wednesday
  Yes,                                    !- Apply Thursday
  Yes,                                    !- Apply Friday
  Yes,                                    !- Apply Saturday
  DateRange,                              !- Date Specification Type
  1,                                      !- Start Month
  1,                                      !- Start Day
  12,                                     !- End Month
  31;                                     !- End Day

OS:Schedule:Day,
  {b32fbaae-2d55-45ce-8a1a-2eff8a25373e}, !- Handle
  heating setpoint day,                   !- Name
  {799afd48-0391-4577-ab61-4ea07f14cdc9}, !- Schedule Type Limits Name
  ,                                       !- Interpolate to Timestep
  24,                                     !- Hour 1
  0,                                      !- Minute 1
  20;                                     !- Value Until Time 1

OS:Schedule:Ruleset,
  {7110e999-4020-46f2-888c-ec14d5c4ee4a}, !- Handle
  cooling setpoint,                       !- Name
  {799afd48-0391-4577-ab61-4ea07f14cdc9}, !- Schedule Type Limits Name
  {96160d8b-484c-4790-8d8a-960a2b46efa0}; !- Default Day Schedule Name

OS:Schedule:Day,
  {96160d8b-484c-4790-8d8a-960a2b46efa0}, !- Handle
  cooling setpoint default day,           !- Name
  {799afd48-0391-4577-ab61-4ea07f14cdc9}, !- Schedule Type Limits Name
  ,                                       !- Interpolate to Timestep
  24,                                     !- Hour 1
  0,                                      !- Minute 1
  0;                                      !- Value Until Time 1

OS:Schedule:Rule,
  {ba2cc395-debc-4f88-a55f-9a85ab766a4e}, !- Handle
  cooling setpoint allday rule,           !- Name
  {7110e999-4020-46f2-888c-ec14d5c4ee4a}, !- Schedule Ruleset Name
  0,                                      !- Rule Order
  {9e0b357b-4f98-4ef9-99cd-6f7ff5467dc0}, !- Day Schedule Name
  Yes,                                    !- Apply Sunday
  Yes,                                    !- Apply Monday
  Yes,                                    !- Apply Tuesday
  Yes,                                    !- Apply Wednesday
  Yes,                                    !- Apply Thursday
  Yes,                                    !- Apply Friday
  Yes,                                    !- Apply Saturday
  DateRange,                              !- Date Specification Type
  1,                                      !- Start Month
  1,                                      !- Start Day
  12,                                     !- End Month
  31;                                     !- End Day

OS:Schedule:Day,
  {9e0b357b-4f98-4ef9-99cd-6f7ff5467dc0}, !- Handle
  cooling setpoint day,                   !- Name
  {799afd48-0391-4577-ab61-4ea07f14cdc9}, !- Schedule Type Limits Name
  ,                                       !- Interpolate to Timestep
  24,                                     !- Hour 1
  0,                                      !- Minute 1
  25.5555555555556;                       !- Value Until Time 1

OS:ThermostatSetpoint:DualSetpoint,
  {937d89c2-5ae6-409a-b8c9-00d5a4d0dda1}, !- Handle
  conditioned space temperature setpoint, !- Name
  {59b2335c-de03-458b-8820-cc35453e7ae6}, !- Heating Setpoint Temperature Schedule Name
  {7110e999-4020-46f2-888c-ec14d5c4ee4a}, !- Cooling Setpoint Temperature Schedule Name
  0;                                      !- Temperature Difference Between Cutout And Setpoint {deltaC}

OS:ScheduleTypeLimits,
  {799afd48-0391-4577-ab61-4ea07f14cdc9}, !- Handle
  Temperature,                            !- Name
  ,                                       !- Lower Limit Value
  ,                                       !- Upper Limit Value
  Continuous,                             !- Numeric Type
  Temperature;                            !- Unit Type

OS:Surface,
  {335ff013-0d8a-4e0e-aec2-45d0a6b7ee1d}, !- Handle
  Roof1,                                  !- Name
  RoofCeiling,                            !- Surface Type
  {8d8a5d7e-9f18-4550-9b18-d2ab91f24cdb}, !- Construction Name
  {03dcf287-6c49-473d-bc54-e5b2d81f8b4a}, !- Space Name
  Outdoors,                               !- Outside Boundary Condition
  ,                                       !- Outside Boundary Condition Object
  SunExposed,                             !- Sun Exposure
  WindExposed,                            !- Wind Exposure
  ,                                       !- View Factor to Ground
  ,                                       !- Number of Vertices
  -26.9347048849634, 58.0557891618865, 2.4384, !- X,Y,Z Vertex 1 {m}
  -26.9347048849634, 46.7895631136661, 8.0715130241102, !- X,Y,Z Vertex 2 {m}
  -14.3386812381136, 46.7895631136661, 8.0715130241102, !- X,Y,Z Vertex 3 {m}
  -14.3386812381136, 58.0557891618865, 2.4384; !- X,Y,Z Vertex 4 {m}

OS:AdditionalProperties,
  {ce1cd919-e83a-488f-8059-e42f37ee997a}, !- Handle
  {335ff013-0d8a-4e0e-aec2-45d0a6b7ee1d}, !- Object Name
  Length,                                 !- Feature Name 1
  Double,                                 !- Feature Data Type 1
  41.325536899113608,                     !- Feature Value 1
  Width,                                  !- Feature Name 2
  Double,                                 !- Feature Data Type 2
  41.325536899113601,                     !- Feature Value 2
  Azimuth,                                !- Feature Name 3
  Integer,                                !- Feature Data Type 3
  0,                                      !- Feature Value 3
  Tilt,                                   !- Feature Name 4
  Double,                                 !- Feature Data Type 4
  0.5,                                    !- Feature Value 4
  SurfaceType,                            !- Feature Name 5
  String,                                 !- Feature Data Type 5
  Roof;                                   !- Feature Value 5

OS:ThermalZone,
  {3991fea9-0307-47d8-8226-17242333c3b0}, !- Handle
  attic - vented,                         !- Name
  1,                                      !- Multiplier
  ,                                       !- Ceiling Height {m}
  356.390921899745,                       !- Volume {m3}
  ,                                       !- Floor Area {m2}
  ,                                       !- Zone Inside Convection Algorithm
  ,                                       !- Zone Outside Convection Algorithm
  ,                                       !- Zone Conditioning Equipment List Name
  {29c7adca-9726-49cc-8888-70ba37499cb1}, !- Zone Air Inlet Port List
  {2c4a7891-ae54-43ca-94c0-25354dbe4e77}, !- Zone Air Exhaust Port List
  {7590769c-e706-4982-8fa2-2bf78a01ecf7}, !- Zone Air Node Name
  {2bc2572e-17e8-4007-b582-117dab5b13f2}, !- Zone Return Air Port List
  ,                                       !- Primary Daylighting Control Name
  ,                                       !- Fraction of Zone Controlled by Primary Daylighting Control
  ,                                       !- Secondary Daylighting Control Name
  ,                                       !- Fraction of Zone Controlled by Secondary Daylighting Control
  ,                                       !- Illuminance Map Name
  ,                                       !- Group Rendering Name
  ,                                       !- Thermostat Name
  No;                                     !- Use Ideal Air Loads

OS:Node,
  {70933af9-68c4-444f-8633-c7456bfbd732}, !- Handle
  Node 2,                                 !- Name
  {7590769c-e706-4982-8fa2-2bf78a01ecf7}, !- Inlet Port
  ;                                       !- Outlet Port

OS:Connection,
  {7590769c-e706-4982-8fa2-2bf78a01ecf7}, !- Handle
  {3991fea9-0307-47d8-8226-17242333c3b0}, !- Source Object
  11,                                     !- Outlet Port
  {70933af9-68c4-444f-8633-c7456bfbd732}, !- Target Object
  2;                                      !- Inlet Port

OS:PortList,
  {29c7adca-9726-49cc-8888-70ba37499cb1}, !- Handle
  {3991fea9-0307-47d8-8226-17242333c3b0}; !- HVAC Component

OS:PortList,
  {2c4a7891-ae54-43ca-94c0-25354dbe4e77}, !- Handle
  {3991fea9-0307-47d8-8226-17242333c3b0}; !- HVAC Component

OS:PortList,
  {2bc2572e-17e8-4007-b582-117dab5b13f2}, !- Handle
  {3991fea9-0307-47d8-8226-17242333c3b0}; !- HVAC Component

OS:Sizing:Zone,
  {43174ea3-4b9a-471a-ba41-69897fdeda61}, !- Handle
  {3991fea9-0307-47d8-8226-17242333c3b0}, !- Zone or ZoneList Name
  SupplyAirTemperature,                   !- Zone Cooling Design Supply Air Temperature Input Method
  14,                                     !- Zone Cooling Design Supply Air Temperature {C}
  11.11,                                  !- Zone Cooling Design Supply Air Temperature Difference {deltaC}
  SupplyAirTemperature,                   !- Zone Heating Design Supply Air Temperature Input Method
  40,                                     !- Zone Heating Design Supply Air Temperature {C}
  11.11,                                  !- Zone Heating Design Supply Air Temperature Difference {deltaC}
  0.0085,                                 !- Zone Cooling Design Supply Air Humidity Ratio {kg-H2O/kg-air}
  0.008,                                  !- Zone Heating Design Supply Air Humidity Ratio {kg-H2O/kg-air}
  ,                                       !- Zone Heating Sizing Factor
  ,                                       !- Zone Cooling Sizing Factor
  DesignDay,                              !- Cooling Design Air Flow Method
  ,                                       !- Cooling Design Air Flow Rate {m3/s}
  ,                                       !- Cooling Minimum Air Flow per Zone Floor Area {m3/s-m2}
  ,                                       !- Cooling Minimum Air Flow {m3/s}
  ,                                       !- Cooling Minimum Air Flow Fraction
  DesignDay,                              !- Heating Design Air Flow Method
  ,                                       !- Heating Design Air Flow Rate {m3/s}
  ,                                       !- Heating Maximum Air Flow per Zone Floor Area {m3/s-m2}
  ,                                       !- Heating Maximum Air Flow {m3/s}
  ,                                       !- Heating Maximum Air Flow Fraction
  No,                                     !- Account for Dedicated Outdoor Air System
  NeutralSupplyAir,                       !- Dedicated Outdoor Air System Control Strategy
  autosize,                               !- Dedicated Outdoor Air Low Setpoint Temperature for Design {C}
  autosize,                               !- Dedicated Outdoor Air High Setpoint Temperature for Design {C}
  Sensible Load Only No Latent Load,      !- Zone Load Sizing Method
  HumidityRatioDifference,                !- Zone Latent Cooling Design Supply Air Humidity Ratio Input Method
  ,                                       !- Zone Dehumidification Design Supply Air Humidity Ratio {kgWater/kgDryAir}
  0.005,                                  !- Zone Cooling Design Supply Air Humidity Ratio Difference {kgWater/kgDryAir}
  HumidityRatioDifference,                !- Zone Latent Heating Design Supply Air Humidity Ratio Input Method
  ,                                       !- Zone Humidification Design Supply Air Humidity Ratio {kgWater/kgDryAir}
  0.005,                                  !- Zone Humidification Design Supply Air Humidity Ratio Difference {kgWater/kgDryAir}
  ,                                       !- Zone Humidistat Dehumidification Set Point Schedule Name
  ,                                       !- Zone Humidistat Humidification Set Point Schedule Name
  ,                                       !- Design Zone Air Distribution Effectiveness in Cooling Mode
  ,                                       !- Design Zone Air Distribution Effectiveness in Heating Mode
  ,                                       !- Design Zone Secondary Recirculation Fraction {dimensionless}
  ,                                       !- Design Minimum Zone Ventilation Efficiency {dimensionless}
  Coincident;                             !- Sizing Option

OS:ZoneHVAC:EquipmentList,
  {f0cfa45f-5769-4c25-9965-e28d532409ce}, !- Handle
  Zone HVAC Equipment List 2,             !- Name
  {3991fea9-0307-47d8-8226-17242333c3b0}; !- Thermal Zone

OS:AdditionalProperties,
  {08a92ef8-a08c-4327-a7a8-fc2c70475d25}, !- Handle
  {3991fea9-0307-47d8-8226-17242333c3b0}, !- Object Name
  ObjectType,                             !- Feature Name 1
  String,                                 !- Feature Data Type 1
  attic - vented;                         !- Feature Value 1

OS:Space,
  {03dcf287-6c49-473d-bc54-e5b2d81f8b4a}, !- Handle
  attic - vented 1,                       !- Name
  ,                                       !- Space Type Name
  ,                                       !- Default Construction Set Name
  ,                                       !- Default Schedule Set Name
  ,                                       !- Direction of Relative North {deg}
  ,                                       !- X Origin {m}
  ,                                       !- Y Origin {m}
  ,                                       !- Z Origin {m}
  ,                                       !- Building Story Name
  {3991fea9-0307-47d8-8226-17242333c3b0}, !- Thermal Zone Name
  ,                                       !- Part of Total Floor Area
  ,                                       !- Design Specification Outdoor Air Object Name
  ,                                       !- Building Unit Name
  356.390921899745;                       !- Volume {m3}

OS:Material,
  {fd14a135-1d85-4183-abe8-e7337c8b4c07}, !- Handle
  asphalt or fiberglass shingles,         !- Name
  Rough,                                  !- Roughness
  0.00635,                                !- Thickness {m}
  0.162714,                               !- Conductivity {W/m-K}
  1121.4,                                 !- Density {kg/m3}
  1465.45,                                !- Specific Heat {J/kg-K}
  0.9,                                    !- Thermal Absorptance
  0.85,                                   !- Solar Absorptance
  0.85;                                   !- Visible Absorptance

OS:Material,
  {f3341254-94b9-496e-87c4-3dcb033d823d}, !- Handle