
OS:Version,
  {78c21c41-8405-4fc4-836d-38db4420884d}, !- Handle
  3.9.0;                                  !- Version Identifier

OS:SimulationControl,
  {399f0973-38ce-4f8d-99d7-f0aec98eb684}, !- Handle
  ,                                       !- Do Zone Sizing Calculation
  ,                                       !- Do System Sizing Calculation
  ,                                       !- Do Plant Sizing Calculation
  No;                                     !- Run Simulation for Sizing Periods

OS:Timestep,
  {6ee6011b-eeeb-418e-b5d5-973ec93e6f96}, !- Handle
  1;                                      !- Number of Timesteps per Hour

OS:ShadowCalculation,
  {8f2feced-bec0-409e-9ab2-4b91d9a7e520}, !- Handle
  PolygonClipping,                        !- Shading Calculation Method
  ,                                       !- Shading Calculation Update Frequency Method
  20,                                     !- Shading Calculation Update Frequency
  200,                                    !- Maximum Figures in Shadow Overlap Calculations
  ,                                       !- Polygon Clipping Algorithm
  512,                                    !- Pixel Counting Resolution
  ,                                       !- Sky Diffuse Modeling Algorithm
  No,                                     !- Output External Shading Calculation Results
  No,                                     !- Disable Self-Shading Within Shading Zone Groups
  No;                                     !- Disable Self-Shading From Shading Zone Groups to Other Zones

OS:SurfaceConvectionAlgorithm:Outside,
  {6070e6ee-ddf1-4709-80e3-cd0df1c0266d}, !- Handle
  DOE-2;                                  !- Algorithm

OS:SurfaceConvectionAlgorithm:Inside,
  {70d0de9d-4bf2-4662-9ada-6ee8892bf301}, !- Handle
  TARP;                                   !- Algorithm

OS:ZoneCapacitanceMultiplier:ResearchSpecial,
  {86fc5826-422e-48a8-92c1-62caf22d6021}, !- Handle
  7,                                      !- Temperature Capacity Multiplier
  15,                                     !- Humidity Capacity Multiplier
  ;                                       !- Carbon Dioxide Capacity Multiplier

OS:ConvergenceLimits,
  {d9a901d6-401b-4c6d-9f6e-e0db5915da59}, !- Handle
  0;                                      !- Minimum System Timestep {minutes}

OS:RunPeriod,
  {571b08c7-8ff4-4fc6-a81f-cb4b7c5204d0}, !- Handle
  Run Period 1,                           !- Name
  1,                                      !- Begin Month
  1,                                      !- Begin Day of Month
  12,                                     !- End Month
  31,                                     !- End Day of Month
  ,                                       !- Use Weather File Holidays and Special Days
  ,                                       !- Use Weather File Daylight Saving Period
  ,                                       !- Apply Weekend Holiday Rule
  ,                                       !- Use Weather File Rain Indicators
  ,                                       !- Use Weather File Snow Indicators
  ;                                       !- Number of Times Runperiod to be Repeated

OS:PerformancePrecisionTradeoffs,
  {44d96614-33a5-42c3-b8e0-38fd96e7c5bf}, !- Handle
  ,                                       !- Use Coil Direct Solutions
  CarrollMRT;                             !- Zone Radiant Exchange Algorithm

OS:WeatherFile,
  {bc1de330-c5da-4ab5-8478-cdf6b7f2d9f6}, !- Handle
  Buffalo Niagara Intl Ap,                !- City
  NY,                                     !- State Province Region
  USA,                                    !- Country
  TMY3,                                   !- Data Source
  725280,                                 !- WMO Number
  42.93,                                  !- Latitude {deg}
  -78.73,                                 !- Longitude {deg}
  -5,                                     !- Time Zone {hr}
  215,                                    !- Elevation {m}
  /Users/nmoore/github/urbanopt-example-geojson-project/example_project/weather/USA_NY_Buffalo-Greater.Buffalo.Intl.AP.725280_TMY3.epw, !- Url
  6B50E0FF,                               !- Checksum
  ,                                       !- Start Date Actual Year
  Sunday;                                 !- Start Day of Week

OS:YearDescription,
  {433d6f93-ae54-4be6-befc-c23473202d9e}, !- Handle
  2007,                                   !- Calendar Year
  ,                                       !- Day of Week for Start Day
  ;                                       !- Is Leap Year

OS:Site,
  {c75242c2-7a6f-4872-a26a-47f166a89029}, !- Handle
  Buffalo Niagara Intl Ap_NY,             !- Name
  42.93,                                  !- Latitude {deg}
  -78.73,                                 !- Longitude {deg}
  -5,                                     !- Time Zone {hr}
  215,                                    !- Elevation {m}
  Suburbs,                                !- Terrain
  Yes;                                    !- Keep Site Location Information

OS:RunPeriodControl:DaylightSavingTime,
  {70aed43e-1f3b-4512-939b-83e33e83fc09}, !- Handle
  Mar 12,                                 !- Start Date
  Nov 5;                                  !- End Date

OS:Site:GroundTemperature:Shallow,
  {a0e2d0c8-9d74-4f99-8a24-e5d3ee396cec}, !- Handle
  4.30207395723828,                       !- January Surface Ground Temperature {C}
  2.29327249652502,                       !- February Surface Ground Temperature {C}
  2.13240047156047,                       !- March Surface Ground Temperature {C}
  3.08567940719286,                       !- April Surface Ground Temperature {C}
  6.91256312497526,                       !- May Surface Ground Temperature {C}
  10.7216195949507,                       !- June Surface Ground Temperature {C}
  14.0238679822574,                       !- July Surface Ground Temperature {C}
  16.1157611184724,                       !- August Surface Ground Temperature {C}
  16.2934789303462,                       !- September Surface Ground Temperature {C}
  14.5920754632847,                       !- October Surface Ground Temperature {C}
  11.374036348653,                        !- November Surface Ground Temperature {C}
  7.68182621661674;                       !- December Surface Ground Temperature {C}

OS:ThermalZone,
  {25cd1586-6231-4815-acb5-bcfbc841fade}, !- Handle
  conditioned space,                      !- Name
  1,                                      !- Multiplier
  ,                                       !- Ceiling Height {m}
  692.06373070848,                        !- Volume {m3}
  ,                                       !- Floor Area {m2}
  ,                                       !- Zone Inside Convection Algorithm
  ,                                       !- Zone Outside Convection Algorithm
  ,                                       !- Zone Conditioning Equipment List Name
  {29bea08b-3671-4e50-a6bb-e1ca92a600be}, !- Zone Air Inlet Port List
  {6518c76f-32ae-4a40-8f06-1c2065185bf3}, !- Zone Air Exhaust Port List
  {ba7d8095-7dd2-4258-84eb-9a0c22e3387d}, !- Zone Air Node Name
  {d874a52e-aba1-40c4-a121-b66c4f34dfae}, !- Zone Return Air Port List
  ,                                       !- Primary Daylighting Control Name
  ,                                       !- Fraction of Zone Controlled by Primary Daylighting Control
  ,                                       !- Secondary Daylighting Control Name
  ,                                       !- Fraction of Zone Controlled by Secondary Daylighting Control
  ,                                       !- Illuminance Map Name
  ,                                       !- Group Rendering Name
  {7a4df091-ab39-4410-8234-ec51b123273a}, !- Thermostat Name
  No;                                     !- Use Ideal Air Loads

OS:Node,
  {540ce7b8-acd9-4240-9f0f-0731adf923d8}, !- Handle
  Node 1,                                 !- Name
  {ba7d8095-7dd2-4258-84eb-9a0c22e3387d}, !- Inlet Port
  ;                                       !- Outlet Port

OS:Connection,
  {ba7d8095-7dd2-4258-84eb-9a0c22e3387d}, !- Handle
  {25cd1586-6231-4815-acb5-bcfbc841fade}, !- Source Object
  11,                                     !- Outlet Port
  {540ce7b8-acd9-4240-9f0f-0731adf923d8}, !- Target Object
  2;                                      !- Inlet Port

OS:PortList,
  {29bea08b-3671-4e50-a6bb-e1ca92a600be}, !- Handle
  {25cd1586-6231-4815-acb5-bcfbc841fade}; !- HVAC Component

OS:PortList,
  {6518c76f-32ae-4a40-8f06-1c2065185bf3}, !- Handle
  {25cd1586-6231-4815-acb5-bcfbc841fade}; !- HVAC Component

OS:PortList,
  {d874a52e-aba1-40c4-a121-b66c4f34dfae}, !- Handle
  {25cd1586-6231-4815-acb5-bcfbc841fade}; !- HVAC Component

OS:Sizing:Zone,
  {e376a607-35cc-40f3-b8d2-88b80ceeab55}, !- Handle
  {25cd1586-6231-4815-acb5-bcfbc841fade}, !- Zone or ZoneList Name
  SupplyAirTemperature,                   !- Zone Cooling Design Supply Air Temperature Input Method
  14,                                     !- Zone Cooling Design Supply Air Temperature {C}
  11.11,                                  !- Zone Cooling Design Supply Air Temperature Difference {deltaC}
  SupplyAirTemperature,                   !- Zone Heating Design Supply Air Temperature Input Method
  40,                                     !- Zone Heating Design Supply Air Temperature {C}
  11.11,                                  !- Zone Heating Design Supply Air Temperature Difference {deltaC}
  0.0085,                                 !- Zone Cooling Design Supply Air Humidity Ratio {kg-H2O/kg-air}
  0.008,                                  !- Zone Heating Design Supply Air Humidity Ratio {kg-H2O/kg-air}
  ,                                       !- Zone Heating Sizing Factor
  ,                                       !- Zone Cooling Sizing Factor
  DesignDay,                              !- Cooling Design Air Flow Method
  ,                                       !- Cooling Design Air Flow Rate {m3/s}
  ,                                       !- Cooling Minimum Air Flow per Zone Floor Area {m3/s-m2}
  ,                                       !- Cooling Minimum Air Flow {m3/s}
  ,                                       !- Cooling Minimum Air Flow Fraction
  DesignDay,                              !- Heating Design Air Flow Method
  ,                                       !- Heating Design Air Flow Rate {m3/s}
  ,                                       !- Heating Maximum Air Flow per Zone Floor Area {m3/s-m2}
  ,                                       !- Heating Maximum Air Flow {m3/s}
  ,                                       !- Heating Maximum Air Flow Fraction
  No,                                     !- Account for Dedicated Outdoor Air System
  NeutralSupplyAir,                       !- Dedicated Outdoor Air System Control Strategy
  autosize,                               !- Dedicated Outdoor Air Low Setpoint Temperature for Design {C}
  autosize,                               !- Dedicated Outdoor Air High Setpoint Temperature for Design {C}
  Sensible Load Only No Latent Load,      !- Zone Load Sizing Method
  HumidityRatioDifference,                !- Zone Latent Cooling Design Supply Air Humidity Ratio Input Method
  ,                                       !- Zone Dehumidification Design Supply Air Humidity Ratio {kgWater/kgDryAir}
  0.005,                                  !- Zone Cooling Design Supply Air Humidity Ratio Difference {kgWater/kgDryAir}
  HumidityRatioDifference,                !- Zone Latent Heating Design Supply Air Humidity Ratio Input Method
  ,                                       !- Zone Humidification Design Supply Air Humidity Ratio {kgWater/kgDryAir}
  0.005,                                  !- Zone Humidification Design Supply Air Humidity Ratio Difference {kgWater/kgDryAir}
  ,                                       !- Zone Humidistat Dehumidification Set Point Schedule Name
  ,                                       !- Zone Humidistat Humidification Set Point Schedule Name
  ,                                       !- Design Zone Air Distribution Effectiveness in Cooling Mode
  ,                                       !- Design Zone Air Distribution Effectiveness in Heating Mode
  ,                                       !- Design Zone Secondary Recirculation Fraction {dimensionless}
  ,                                       !- Design Minimum Zone Ventilation Efficiency {dimensionless}
  Coincident;                             !- Sizing Option

OS:ZoneHVAC:EquipmentList,
  {f70341ee-56ae-4e06-aee7-34f95dc319a0}, !- Handle
  Zone HVAC Equipment List 1,             !- Name
  {25cd1586-6231-4815-acb5-bcfbc841fade}, !- Thermal Zone
  ,                                       !- Load Distribution Scheme
  {881c613e-57f5-49ad-9d15-77e5e942a341}, !- Zone Equipment 1
  1,                                      !- Zone Equipment Cooling Sequence 1
  1,                                      !- Zone Equipment Heating or No-Load Sequence 1
  {0967bf99-2aa7-4e89-a951-dbf390fc42aa}, !- Zone Equipment Sequential Cooling Fraction Schedule Name 1
  {824228ad-42a6-4802-8540-fe5400932bdd}; !- Zone Equipment Sequential Heating Fraction Schedule Name 1

OS:AdditionalProperties,
  {33b8e278-7a21-432b-937c-1a3493472af2}, !- Handle
  {25cd1586-6231-4815-acb5-bcfbc841fade}, !- Object Name
  ObjectType,                             !- Feature Name 1
  String,                                 !- Feature Data Type 1
  conditioned space;                      !- Feature Value 1

OS:Space,
  {2af16631-cb97-46d5-a54b-94b724a1b727}, !- Handle
  conditioned space 1,                    !- Name
  ,                                       !- Space Type Name
  ,                                       !- Default Construction Set Name
  ,                                       !- Default Schedule Set Name
  ,                                       !- Direction of Relative North {deg}
  ,                                       !- X Origin {m}
  ,                                       !- Y Origin {m}
  ,                                       !- Z Origin {m}
  ,                                       !- Building Story Name
  {25cd1586-6231-4815-acb5-bcfbc841fade}, !- Thermal Zone Name
  ,                                       !- Part of Total Floor Area
  ,                                       !- Design Specification Outdoor Air Object Name
  ,                                       !- Building Unit Name
  692.06373070848;                        !- Volume {m3}

OS:Schedule:Ruleset,
  {410f3899-189b-4584-b713-ace6c8df72bb}, !- Handle
  heating setpoint,                       !- Name
  {85cc82b1-6107-4d26-a21f-2f3e43f3ef0a}, !- Schedule Type Limits Name
  {3e081a78-d82a-4396-93b7-f16373473805}; !- Default Day Schedule Name

OS:Schedule:Day,
  {3e081a78-d82a-4396-93b7-f16373473805}, !- Handle
  heating setpoint default day,           !- Name
  {85cc82b1-6107-4d26-a21f-2f3e43f3ef0a}, !- Schedule Type Limits Name
  ,                                       !- Interpolate to Timestep
  24,                                     !- Hour 1
  0,                                      !- Minute 1
  0;                                      !- Value Until Time 1

OS:Schedule:Rule,
  {e1048570-d6d3-4b82-a2dc-068839c86c7b}, !- Handle
  heating setpoint allday rule,           !- Name
  {410f3899-189b-4584-b713-ace6c8df72bb}, !- Schedule Ruleset Name
  0,                                      !- Rule Order
  {c65b7d3d-8d12-4eba-96ff-7ed57a003d15}, !- Day Schedule Name
  Yes,                                    !- Apply Sunday
  Yes,                                    !- Apply Monday
  Yes,                                    !- Apply Tuesday
  Yes,                                    !- Apply Wednesday
  Yes,                                    !- Apply Thursday
  Yes,                                    !- Apply Friday
  Yes,                                    !- Apply Saturday
  DateRange,                              !- Date Specification Type
  1,                                      !- Start Month
  1,                                      !- Start Day
  12,                                     !- End Month
  31;                                     !- End Day

OS:Schedule:Day,
  {c65b7d3d-8d12-4eba-96ff-7ed57a003d15}, !- Handle
  heating setpoint day,                   !- Name
  {85cc82b1-6107-4d26-a21f-2f3e43f3ef0a}, !- Schedule Type Limits Name
  ,                                       !- Interpolate to Timestep
  24,                                     !- Hour 1
  0,                                      !- Minute 1
  20;                                     !- Value Until Time 1

OS:Schedule:Ruleset,
  {c95c964b-4ae9-49ee-91ec-c58900fc37fe}, !- Handle
  cooling setpoint,                       !- Name
  {85cc82b1-6107-4d26-a21f-2f3e43f3ef0a}, !- Schedule Type Limits Name
  {332d7966-b278-4937-a23f-190888433496}; !- Default Day Schedule Name

OS:Schedule:Day,
  {332d7966-b278-4937-a23f-190888433496}, !- Handle
  cooling setpoint default day,           !- Name
  {85cc82b1-6107-4d26-a21f-2f3e43f3ef0a}, !- Schedule Type Limits Name
  ,                                       !- Interpolate to Timestep
  24,                                     !- Hour 1
  0,                                      !- Minute 1
  0;                                      !- Value Until Time 1

OS:Schedule:Rule,
  {99bd1eeb-d95f-4a0b-b938-bc46c6975804}, !- Handle
  cooling setpoint allday rule,           !- Name
  {c95c964b-4ae9-49ee-91ec-c58900fc37fe}, !- Schedule Ruleset Name
  0,                                      !- Rule Order
  {145a3b14-d578-4263-adf5-b315f9f6da76}, !- Day Schedule Name
  Yes,                                    !- Apply Sunday
  Yes,                                    !- Apply Monday
  Yes,                                    !- Apply Tuesday
  Yes,                                    !- Apply Wednesday
  Yes,                                    !- Apply Thursday
  Yes,                                    !- Apply Friday
  Yes,                                    !- Apply Saturday
  DateRange,                              !- Date Specification Type
  1,                                      !- Start Month
  1,                                      !- Start Day
  12,                                     !- End Month
  31;                                     !- End Day

OS:Schedule:Day,
  {145a3b14-d578-4263-adf5-b315f9f6da76}, !- Handle
  cooling setpoint day,                   !- Name
  {85cc82b1-6107-4d26-a21f-2f3e43f3ef0a}, !- Schedule Type Limits Name
  ,                                       !- Interpolate to Timestep
  24,                                     !- Hour 1
  0,                                      !- Minute 1
  25.5555555555556;                       !- Value Until Time 1

OS:ThermostatSetpoint:DualSetpoint,
  {7a4df091-ab39-4410-8234-ec51b123273a}, !- Handle
  conditioned space temperature setpoint, !- Name
  {410f3899-189b-4584-b713-ace6c8df72bb}, !- Heating Setpoint Temperature Schedule Name
  {c95c964b-4ae9-49ee-91ec-c58900fc37fe}, !- Cooling Setpoint Temperature Schedule Name
  0;                                      !- Temperature Difference Between Cutout And Setpoint {deltaC}

OS:ScheduleTypeLimits,
  {85cc82b1-6107-4d26-a21f-2f3e43f3ef0a}, !- Handle
  Temperature,                            !- Name
  ,                                       !- Lower Limit Value
  ,                                       !- Upper Limit Value
  Continuous,                             !- Numeric Type
  Temperature;                            !- Unit Type

OS:Surface,
  {e05dd17d-aef1-414e-be07-26cc99d0f73a}, !- Handle
  Roof1,                                  !- Name
  RoofCeiling,                            !- Surface Type
  {32a1d3b2-cd04-445f-ad68-53008f9a591c}, !- Construction Name
  {dae66782-c0a2-4312-aa2c-7878f27b18ce}, !- Space Name
  Outdoors,                               !- Outside Boundary Condition
  ,                                       !- Outside Boundary Condition Object
  SunExposed,                             !- Sun Exposure
  WindExposed,                            !- Wind Exposure
  ,                                       !- View Factor to Ground
  ,                                       !- Number of Vertices
  -26.9347048849634, 58.0557891618865, 2.4384, !- X,Y,Z Vertex 1 {m}
  -26.9347048849634, 46.7895631136661, 8.0715130241102, !- X,Y,Z Vertex 2 {m}
  -14.3386812381136, 46.7895631136661, 8.0715130241102, !- X,Y,Z Vertex 3 {m}
  -14.3386812381136, 58.0557891618865, 2.4384; !- X,Y,Z Vertex 4 {m}

OS:AdditionalProperties,
  {77cbe194-72b2-4f8a-b83f-ecf788f938ba}, !- Handle
  {e05dd17d-aef1-414e-be07-26cc99d0f73a}, !- Object Name
  Length,                                 !- Feature Name 1
  Double,                                 !- Feature Data Type 1
  41.325536899113608,                     !- Feature Value 1
  Width,                                  !- Feature Name 2
  Double,                                 !- Feature Data Type 2
  41.325536899113601,                     !- Feature Value 2
  Azimuth,                                !- Feature Name 3
  Integer,                                !- Feature Data Type 3
  0,                                      !- Feature Value 3
  Tilt,                                   !- Feature Name 4
  Double,                                 !- Feature Data Type 4
  0.5,                                    !- Feature Value 4
  SurfaceType,                            !- Feature Name 5
  String,                                 !- Feature Data Type 5
  Roof;                                   !- Feature Value 5

OS:ThermalZone,
  {6560aa48-a961-46ae-b553-be6b06da66ff}, !- Handle
  attic - vented,                         !- Name
  1,                                      !- Multiplier
  ,                                       !- Ceiling Height {m}
  356.389957095237,                       !- Volume {m3}
  ,                                       !- Floor Area {m2}
  ,                                       !- Zone Inside Convection Algorithm
  ,                                       !- Zone Outside Convection Algorithm
  ,                                       !- Zone Conditioning Equipment List Name
  {f2dbeff7-33a0-4191-9e1f-24a611df91e8}, !- Zone Air Inlet Port List
  {e0f834cd-e966-493c-8914-cfb0ade39ded}, !- Zone Air Exhaust Port List
  {4d613fcd-cd16-4ff6-ac06-a41337d93d50}, !- Zone Air Node Name
  {4f0008d0-499b-4d65-8a36-dde63a2cea9a}, !- Zone Return Air Port List
  ,                                       !- Primary Daylighting Control Name
  ,                                       !- Fraction of Zone Controlled by Primary Daylighting Control
  ,                                       !- Secondary Daylighting Control Name
  ,                                       !- Fraction of Zone Controlled by Secondary Daylighting Control
  ,                                       !- Illuminance Map Name
  ,                                       !- Group Rendering Name
  ,                                       !- Thermostat Name
  No;                                     !- Use Ideal Air Loads

OS:Node,
  {877e48ee-cc89-48f8-ab74-75f2b14d93d6}, !- Handle
  Node 2,                                 !- Name
  {4d613fcd-cd16-4ff6-ac06-a41337d93d50}, !- Inlet Port
  ;                                       !- Outlet Port

OS:Connection,
  {4d613fcd-cd16-4ff6-ac06-a41337d93d50}, !- Handle
  {6560aa48-a961-46ae-b553-be6b06da66ff}, !- Source Object
  11,                                     !- Outlet Port
  {877e48ee-cc89-48f8-ab74-75f2b14d93d6}, !- Target Object
  2;                                      !- Inlet Port

OS:PortList,
  {f2dbeff7-33a0-4191-9e1f-24a611df91e8}, !- Handle
  {6560aa48-a961-46ae-b553-be6b06da66ff}; !- HVAC Component

OS:PortList,
  {e0f834cd-e966-493c-8914-cfb0ade39ded}, !- Handle
  {6560aa48-a961-46ae-b553-be6b06da66ff}; !- HVAC Component

OS:PortList,
  {4f0008d0-499b-4d65-8a36-dde63a2cea9a}, !- Handle
  {6560aa48-a961-46ae-b553-be6b06da66ff}; !- HVAC Component

OS:Sizing:Zone,
  {fe91de1b-944b-4548-81a5-078b44314b33}, !- Handle
  {6560aa48-a961-46ae-b553-be6b06da66ff}, !- Zone or ZoneList Name
  SupplyAirTemperature,                   !- Zone Cooling Design Supply Air Temperature Input Method
  14,                                     !- Zone Cooling Design Supply Air Temperature {C}
  11.11,                                  !- Zone Cooling Design Supply Air Temperature Difference {deltaC}
  SupplyAirTemperature,                   !- Zone Heating Design Supply Air Temperature Input Method
  40,                                     !- Zone Heating Design Supply Air Temperature {C}
  11.11,                                  !- Zone Heating Design Supply Air Temperature Difference {deltaC}
  0.0085,                                 !- Zone Cooling Design Supply Air Humidity Ratio {kg-H2O/kg-air}
  0.008,                                  !- Zone Heating Design Supply Air Humidity Ratio {kg-H2O/kg-air}
  ,                                       !- Zone Heating Sizing Factor
  ,                                       !- Zone Cooling Sizing Factor
  DesignDay,                              !- Cooling Design Air Flow Method
  ,                                       !- Cooling Design Air Flow Rate {m3/s}
  ,                                       !- Cooling Minimum Air Flow per Zone Floor Area {m3/s-m2}
  ,                                       !- Cooling Minimum Air Flow {m3/s}
  ,                                       !- Cooling Minimum Air Flow Fraction
  DesignDay,                              !- Heating Design Air Flow Method
  ,                                       !- Heating Design Air Flow Rate {m3/s}
  ,                                       !- Heating Maximum Air Flow per Zone Floor Area {m3/s-m2}
  ,                                       !- Heating Maximum Air Flow {m3/s}
  ,                                       !- Heating Maximum Air Flow Fraction
  No,                                     !- Account for Dedicated Outdoor Air System
  NeutralSupplyAir,                       !- Dedicated Outdoor Air System Control Strategy
  autosize,                               !- Dedicated Outdoor Air Low Setpoint Temperature for Design {C}
  autosize,                               !- Dedicated Outdoor Air High Setpoint Temperature for Design {C}
  Sensible Load Only No Latent Load,      !- Zone Load Sizing Method
  HumidityRatioDifference,                !- Zone Latent Cooling Design Supply Air Humidity Ratio Input Method
  ,                                       !- Zone Dehumidification Design Supply Air Humidity Ratio {kgWater/kgDryAir}
  0.005,                                  !- Zone Cooling Design Supply Air Humidity Ratio Difference {kgWater/kgDryAir}
  HumidityRatioDifference,                !- Zone Latent Heating Design Supply Air Humidity Ratio Input Method
  ,                                       !- Zone Humidification Design Supply Air Humidity Ratio {kgWater/kgDryAir}
  0.005,                                  !- Zone Humidification Design Supply Air Humidity Ratio Difference {kgWater/kgDryAir}
  ,                                       !- Zone Humidistat Dehumidification Set Point Schedule Name
  ,                                       !- Zone Humidistat Humidification Set Point Schedule Name
  ,                                       !- Design Zone Air Distribution Effectiveness in Cooling Mode
  ,                                       !- Design Zone Air Distribution Effectiveness in Heating Mode
  ,                                       !- Design Zone Secondary Recirculation Fraction {dimensionless}
  ,                                       !- Design Minimum Zone Ventilation Efficiency {dimensionless}
  Coincident;                             !- Sizing Option

OS:ZoneHVAC:EquipmentList,
  {3410dce0-c447-4f08-9db1-d2dbc282a8e5}, !- Handle
  Zone HVAC Equipment List 2,             !- Name
  {6560aa48-a961-46ae-b553-be6b06da66ff}; !- Thermal Zone

OS:AdditionalProperties,
  {e17e7233-8b0b-4f02-a56e-a56221659c5c}, !- Handle
  {6560aa48-a961-46ae-b553-be6b06da66ff}, !- Object Name
  ObjectType,                             !- Feature Name 1
  String,                                 !- Feature Data Type 1
  attic - vented;                         !- Feature Value 1

OS:Space,
  {dae66782-c0a2-4312-aa2c-7878f27b18ce}, !- Handle
  attic - vented 1,                       !- Name
  ,                                       !- Space Type Name
  ,                                       !- Default Construction Set Name
  ,                                       !- Default Schedule Set Name
  ,                                       !- Direction of Relative North {deg}
  ,                                       !- X Origin {m}
  ,                                       !- Y Origin {m}
  ,                                       !- Z Origin {m}
  ,                                       !- Building Story Name
  {6560aa48-a961-46ae-b553-be6b06da66ff}, !- Thermal Zone Name
  ,                                       !- Part of Total Floor Area
  ,                                       !- Design Specification Outdoor Air Object Name
  ,                                       !- Building Unit Name
  356.389957095237;                       !- Volume {m3}

OS:Material,
  {c830d28a-a317-41a6-aa40-38c03fa6ff6b}, !- Handle
  asphalt or fiberglass shingles,         !- Name
  Rough,                                  !- Roughness
  0.00635,                                !- Thickness {m}
  0.162714,                               !- Conductivity {W/m-K}
  1121.4,                                 !- Density {kg/m3}
  1465.45,                                !- Specific Heat {J/kg-K}
  0.9,                                    !- Thermal Absorptance
  0.85,                                   !- Solar Absorptance
  0.85;                                   !- Visible Absorptance

OS:Material,
  {0af99403-8973-4c07-87d0-28ebbeb51784}, !- Handle