
OS:Version,
  {2bd53785-5e87-481d-ba4a-4feee55ae778}, !- Handle
  3.9.0;                                  !- Version Identifier

OS:SimulationControl,
  {b39f9d64-5009-4c34-9f53-d6e5b6efc6f2}, !- Handle
  ,                                       !- Do Zone Sizing Calculation
  ,                                       !- Do System Sizing Calculation
  ,                                       !- Do Plant Sizing Calculation
  No;                                     !- Run Simulation for Sizing Periods

OS:Timestep,
  {2175b53d-f6ef-489b-a001-69bd28720d71}, !- Handle
  1;                                      !- Number of Timesteps per Hour

OS:ShadowCalculation,
  {3006f2a9-2109-4558-aed7-92ee3d9411e3}, !- Handle
  PolygonClipping,                        !- Shading Calculation Method
  ,                                       !- Shading Calculation Update Frequency Method
  20,                                     !- Shading Calculation Update Frequency
  200,                                    !- Maximum Figures in Shadow Overlap Calculations
  ,                                       !- Polygon Clipping Algorithm
  512,                                    !- Pixel Counting Resolution
  ,                                       !- Sky Diffuse Modeling Algorithm
  No,                                     !- Output External Shading Calculation Results
  No,                                     !- Disable Self-Shading Within Shading Zone Groups
  No;                                     !- Disable Self-Shading From Shading Zone Groups to Other Zones

OS:SurfaceConvectionAlgorithm:Outside,
  {a8bc4c61-8b23-4292-8673-29beacefbfd1}, !- Handle
  DOE-2;                                  !- Algorithm

OS:SurfaceConvectionAlgorithm:Inside,
  {958b1b8f-8bae-4712-b8a3-8e13416815b9}, !- Handle
  TARP;                                   !- Algorithm

OS:ZoneCapacitanceMultiplier:ResearchSpecial,
  {70b5513c-cad3-40e5-a606-894b5900ed56}, !- Handle
  7,                                      !- Temperature Capacity Multiplier
  15,                                     !- Humidity Capacity Multiplier
  ;                                       !- Carbon Dioxide Capacity Multiplier

OS:ConvergenceLimits,
  {24d57b95-1f37-47e9-b743-69cbcafeb200}, !- Handle
  0;                                      !- Minimum System Timestep {minutes}

OS:RunPeriod,
  {657ed625-d63b-48b5-8a76-77169b210cc5}, !- Handle
  Run Period 1,                           !- Name
  1,                                      !- Begin Month
  1,                                      !- Begin Day of Month
  12,                                     !- End Month
  31,                                     !- End Day of Month
  ,                                       !- Use Weather File Holidays and Special Days
  ,                                       !- Use Weather File Daylight Saving Period
  ,                                       !- Apply Weekend Holiday Rule
  ,                                       !- Use Weather File Rain Indicators
  ,                                       !- Use Weather File Snow Indicators
  ;                                       !- Number of Times Runperiod to be Repeated

OS:PerformancePrecisionTradeoffs,
  {0623ade6-7d0f-4d8e-aa31-12ba2bfd02e6}, !- Handle
  ,                                       !- Use Coil Direct Solutions
  CarrollMRT;                             !- Zone Radiant Exchange Algorithm

OS:WeatherFile,
  {62d4ec8a-9c37-465a-917b-948788a50126}, !- Handle
  Buffalo Niagara Intl Ap,                !- City
  NY,                                     !- State Province Region
  USA,                                    !- Country
  TMY3,                                   !- Data Source
  725280,                                 !- WMO Number
  42.93,                                  !- Latitude {deg}
  -78.73,                                 !- Longitude {deg}
  -5,                                     !- Time Zone {hr}
  215,                                    !- Elevation {m}
  /Users/nmoore/github/urbanopt-example-geojson-project/example_project/weather/USA_NY_Buffalo-Greater.Buffalo.Intl.AP.725280_TMY3.epw, !- Url
  6B50E0FF,                               !- Checksum
  ,                                       !- Start Date Actual Year
  Sunday;                                 !- Start Day of Week

OS:YearDescription,
  {206931bb-72b3-4c17-9d0d-b71559c65962}, !- Handle
  2007,                                   !- Calendar Year
  ,                                       !- Day of Week for Start Day
  ;                                       !- Is Leap Year

OS:Site,
  {92a5786d-0c59-4acb-9bac-c75dfd0590ab}, !- Handle
  Buffalo Niagara Intl Ap_NY,             !- Name
  42.93,                                  !- Latitude {deg}
  -78.73,                                 !- Longitude {deg}
  -5,                                     !- Time Zone {hr}
  215,                                    !- Elevation {m}
  Suburbs,                                !- Terrain
  Yes;                                    !- Keep Site Location Information

OS:RunPeriodControl:DaylightSavingTime,
  {2a52a0bf-3f6f-4c45-91ce-29a341577c5d}, !- Handle
  Mar 12,                                 !- Start Date
  Nov 5;                                  !- End Date

OS:Site:GroundTemperature:Shallow,
  {5d6880d9-0d42-477d-adf9-494b7cfb19ea}, !- Handle
  4.30207395723828,                       !- January Surface Ground Temperature {C}
  2.29327249652502,                       !- February Surface Ground Temperature {C}
  2.13240047156047,                       !- March Surface Ground Temperature {C}
  3.08567940719286,                       !- April Surface Ground Temperature {C}
  6.91256312497526,                       !- May Surface Ground Temperature {C}
  10.7216195949507,                       !- June Surface Ground Temperature {C}
  14.0238679822574,                       !- July Surface Ground Temperature {C}
  16.1157611184724,                       !- August Surface Ground Temperature {C}
  16.2934789303462,                       !- September Surface Ground Temperature {C}
  14.5920754632847,                       !- October Surface Ground Temperature {C}
  11.374036348653,                        !- November Surface Ground Temperature {C}
  7.68182621661674;                       !- December Surface Ground Temperature {C}

OS:ThermalZone,
  {eca68637-6cd2-483c-98ca-b25d5b7750bc}, !- Handle
  conditioned space,                      !- Name
  1,                                      !- Multiplier
  ,                                       !- Ceiling Height {m}
  692.06373070848,                        !- Volume {m3}
  ,                                       !- Floor Area {m2}
  ,                                       !- Zone Inside Convection Algorithm
  ,                                       !- Zone Outside Convection Algorithm
  ,                                       !- Zone Conditioning Equipment List Name
  {36309cc8-b112-48f4-84cb-02a64876eef3}, !- Zone Air Inlet Port List
  {d97fae3b-92a8-4d59-8b78-588f24e51c8c}, !- Zone Air Exhaust Port List
  {28daac1e-f8b5-4fe1-ad21-141654099db9}, !- Zone Air Node Name
  {81deca15-969b-44c6-b0a3-ff410e4d350b}, !- Zone Return Air Port List
  ,                                       !- Primary Daylighting Control Name
  ,                                       !- Fraction of Zone Controlled by Primary Daylighting Control
  ,                                       !- Secondary Daylighting Control Name
  ,                                       !- Fraction of Zone Controlled by Secondary Daylighting Control
  ,                                       !- Illuminance Map Name
  ,                                       !- Group Rendering Name
  {6a7bd2be-2553-412a-8c32-ad89455093fb}, !- Thermostat Name
  No;                                     !- Use Ideal Air Loads

OS:Node,
  {8fbe3bb3-7499-48ec-81dd-ff908a590516}, !- Handle
  Node 1,                                 !- Name
  {28daac1e-f8b5-4fe1-ad21-141654099db9}, !- Inlet Port
  ;                                       !- Outlet Port

OS:Connection,
  {28daac1e-f8b5-4fe1-ad21-141654099db9}, !- Handle
  {eca68637-6cd2-483c-98ca-b25d5b7750bc}, !- Source Object
  11,                                     !- Outlet Port
  {8fbe3bb3-7499-48ec-81dd-ff908a590516}, !- Target Object
  2;                                      !- Inlet Port

OS:PortList,
  {36309cc8-b112-48f4-84cb-02a64876eef3}, !- Handle
  {eca68637-6cd2-483c-98ca-b25d5b7750bc}, !- HVAC Component
  {5c862dfe-ece2-44af-a274-539e23295b82}; !- Port 1

OS:PortList,
  {d97fae3b-92a8-4d59-8b78-588f24e51c8c}, !- Handle
  {eca68637-6cd2-483c-98ca-b25d5b7750bc}; !- HVAC Component

OS:PortList,
  {81deca15-969b-44c6-b0a3-ff410e4d350b}, !- Handle
  {eca68637-6cd2-483c-98ca-b25d5b7750bc}, !- HVAC Component
  {234ec860-9db1-4b1b-b11f-5a4949300100}; !- Port 1

OS:Sizing:Zone,
  {997f6916-b4fe-412a-835e-0d65f93ca191}, !- Handle
  {eca68637-6cd2-483c-98ca-b25d5b7750bc}, !- Zone or ZoneList Name
  SupplyAirTemperature,                   !- Zone Cooling Design Supply Air Temperature Input Method
  14,                                     !- Zone Cooling Design Supply Air Temperature {C}
  11.11,                                  !- Zone Cooling Design Supply Air Temperature Difference {deltaC}
  SupplyAirTemperature,                   !- Zone Heating Design Supply Air Temperature Input Method
  40,                                     !- Zone Heating Design Supply Air Temperature {C}
  11.11,                                  !- Zone Heating Design Supply Air Temperature Difference {deltaC}
  0.0085,                                 !- Zone Cooling Design Supply Air Humidity Ratio {kg-H2O/kg-air}
  0.008,                                  !- Zone Heating Design Supply Air Humidity Ratio {kg-H2O/kg-air}
  ,                                       !- Zone Heating Sizing Factor
  ,                                       !- Zone Cooling Sizing Factor
  DesignDay,                              !- Cooling Design Air Flow Method
  ,                                       !- Cooling Design Air Flow Rate {m3/s}
  ,                                       !- Cooling Minimum Air Flow per Zone Floor Area {m3/s-m2}
  ,                                       !- Cooling Minimum Air Flow {m3/s}
  ,                                       !- Cooling Minimum Air Flow Fraction
  DesignDay,                              !- Heating Design Air Flow Method
  ,                                       !- Heating Design Air Flow Rate {m3/s}
  ,                                       !- Heating Maximum Air Flow per Zone Floor Area {m3/s-m2}
  ,                                       !- Heating Maximum Air Flow {m3/s}
  ,                                       !- Heating Maximum Air Flow Fraction
  No,                                     !- Account for Dedicated Outdoor Air System
  NeutralSupplyAir,                       !- Dedicated Outdoor Air System Control Strategy
  autosize,                               !- Dedicated Outdoor Air Low Setpoint Temperature for Design {C}
  autosize,                               !- Dedicated Outdoor Air High Setpoint Temperature for Design {C}
  Sensible Load Only No Latent Load,      !- Zone Load Sizing Method
  HumidityRatioDifference,                !- Zone Latent Cooling Design Supply Air Humidity Ratio Input Method
  ,                                       !- Zone Dehumidification Design Supply Air Humidity Ratio {kgWater/kgDryAir}
  0.005,                                  !- Zone Cooling Design Supply Air Humidity Ratio Difference {kgWater/kgDryAir}
  HumidityRatioDifference,                !- Zone Latent Heating Design Supply Air Humidity Ratio Input Method
  ,                                       !- Zone Humidification Design Supply Air Humidity Ratio {kgWater/kgDryAir}
  0.005,                                  !- Zone Humidification Design Supply Air Humidity Ratio Difference {kgWater/kgDryAir}
  ,                                       !- Zone Humidistat Dehumidification Set Point Schedule Name
  ,                                       !- Zone Humidistat Humidification Set Point Schedule Name
  ,                                       !- Design Zone Air Distribution Effectiveness in Cooling Mode
  ,                                       !- Design Zone Air Distribution Effectiveness in Heating Mode
  ,                                       !- Design Zone Secondary Recirculation Fraction {dimensionless}
  ,                                       !- Design Minimum Zone Ventilation Efficiency {dimensionless}
  Coincident;                             !- Sizing Option

OS:ZoneHVAC:EquipmentList,
  {d33a42e8-fc23-444f-aeda-57692b876ec0}, !- Handle
  Zone HVAC Equipment List 1,             !- Name
  {eca68637-6cd2-483c-98ca-b25d5b7750bc}, !- Thermal Zone
  ,                                       !- Load Distribution Scheme
  {7802a369-5da1-48a5-9c81-b3b886cd0e04}, !- Zone Equipment 1
  1,                                      !- Zone Equipment Cooling Sequence 1
  1,                                      !- Zone Equipment Heating or No-Load Sequence 1
  {68862bc4-3d91-4d13-9374-20664197e421}, !- Zone Equipment Sequential Cooling Fraction Schedule Name 1
  {2ff6ccc2-8a0e-4ebc-93df-76fe8615d732}; !- Zone Equipment Sequential Heating Fraction Schedule Name 1

OS:AdditionalProperties,
  {f28208fe-d042-41d1-bc38-f3523de7e10b}, !- Handle
  {eca68637-6cd2-483c-98ca-b25d5b7750bc}, !- Object Name
  ObjectType,                             !- Feature Name 1
  String,                                 !- Feature Data Type 1
  conditioned space;                      !- Feature Value 1

OS:Space,
  {3e8a8f77-a43a-495b-9243-22d3740d3f25}, !- Handle
  conditioned space 1,                    !- Name
  ,                                       !- Space Type Name
  ,                                       !- Default Construction Set Name
  ,                                       !- Default Schedule Set Name
  ,                                       !- Direction of Relative North {deg}
  ,                                       !- X Origin {m}
  ,                                       !- Y Origin {m}
  ,                                       !- Z Origin {m}
  ,                                       !- Building Story Name
  {eca68637-6cd2-483c-98ca-b25d5b7750bc}, !- Thermal Zone Name
  ,                                       !- Part of Total Floor Area
  ,                                       !- Design Specification Outdoor Air Object Name
  ,                                       !- Building Unit Name
  692.06373070848;                        !- Volume {m3}

OS:Schedule:Ruleset,
  {d6c99f28-9ab3-4a4f-a16b-ab13d1a24c6e}, !- Handle
  heating setpoint,                       !- Name
  {6669daac-6674-472a-8228-88d2ec2305a3}, !- Schedule Type Limits Name
  {37a74b00-e5fe-4b98-a31a-9999ac4b557f}; !- Default Day Schedule Name

OS:Schedule:Day,
  {37a74b00-e5fe-4b98-a31a-9999ac4b557f}, !- Handle
  heating setpoint default day,           !- Name
  {6669daac-6674-472a-8228-88d2ec2305a3}, !- Schedule Type Limits Name
  ,                                       !- Interpolate to Timestep
  24,                                     !- Hour 1
  0,                                      !- Minute 1
  0;                                      !- Value Until Time 1

OS:Schedule:Rule,
  {3f2b3bbf-ae80-4cee-bc5a-3babedae0579}, !- Handle
  heating setpoint allday rule,           !- Name
  {d6c99f28-9ab3-4a4f-a16b-ab13d1a24c6e}, !- Schedule Ruleset Name
  0,                                      !- Rule Order
  {cf4a5d2b-c33f-4973-89dc-949d8dbc2a1b}, !- Day Schedule Name
  Yes,                                    !- Apply Sunday
  Yes,                                    !- Apply Monday
  Yes,                                    !- Apply Tuesday
  Yes,                                    !- Apply Wednesday
  Yes,                                    !- Apply Thursday
  Yes,                                    !- Apply Friday
  Yes,                                    !- Apply Saturday
  DateRange,                              !- Date Specification Type
  1,                                      !- Start Month
  1,                                      !- Start Day
  12,                                     !- End Month
  31;                                     !- End Day

OS:Schedule:Day,
  {cf4a5d2b-c33f-4973-89dc-949d8dbc2a1b}, !- Handle
  heating setpoint day,                   !- Name
  {6669daac-6674-472a-8228-88d2ec2305a3}, !- Schedule Type Limits Name
  ,                                       !- Interpolate to Timestep
  24,                                     !- Hour 1
  0,                                      !- Minute 1
  20;                                     !- Value Until Time 1

OS:Schedule:Ruleset,
  {bcd1a728-ac3b-4ba7-b552-0633d817db7b}, !- Handle
  cooling setpoint,                       !- Name
  {6669daac-6674-472a-8228-88d2ec2305a3}, !- Schedule Type Limits Name
  {09978c96-44b2-4f1b-bf0d-12e41e745440}; !- Default Day Schedule Name

OS:Schedule:Day,
  {09978c96-44b2-4f1b-bf0d-12e41e745440}, !- Handle
  cooling setpoint default day,           !- Name
  {6669daac-6674-472a-8228-88d2ec2305a3}, !- Schedule Type Limits Name
  ,                                       !- Interpolate to Timestep
  24,                                     !- Hour 1
  0,                                      !- Minute 1
  0;                                      !- Value Until Time 1

OS:Schedule:Rule,
  {580c829b-308d-478d-8aa1-23c8fbd4ad77}, !- Handle
  cooling setpoint allday rule,           !- Name
  {bcd1a728-ac3b-4ba7-b552-0633d817db7b}, !- Schedule Ruleset Name
  0,                                      !- Rule Order
  {24bb83a0-7ead-4ea6-8872-dc02b99f2cbe}, !- Day Schedule Name
  Yes,                                    !- Apply Sunday
  Yes,                                    !- Apply Monday
  Yes,                                    !- Apply Tuesday
  Yes,                                    !- Apply Wednesday
  Yes,                                    !- Apply Thursday
  Yes,                                    !- Apply Friday
  Yes,                                    !- Apply Saturday
  DateRange,                              !- Date Specification Type
  1,                                      !- Start Month
  1,                                      !- Start Day
  12,                                     !- End Month
  31;                                     !- End Day

OS:Schedule:Day,
  {24bb83a0-7ead-4ea6-8872-dc02b99f2cbe}, !- Handle
  cooling setpoint day,                   !- Name
  {6669daac-6674-472a-8228-88d2ec2305a3}, !- Schedule Type Limits Name
  ,                                       !- Interpolate to Timestep
  24,                                     !- Hour 1
  0,                                      !- Minute 1
  25.5555555555556;                       !- Value Until Time 1

OS:ThermostatSetpoint:DualSetpoint,
  {6a7bd2be-2553-412a-8c32-ad89455093fb}, !- Handle
  conditioned space temperature setpoint, !- Name
  {d6c99f28-9ab3-4a4f-a16b-ab13d1a24c6e}, !- Heating Setpoint Temperature Schedule Name
  {bcd1a728-ac3b-4ba7-b552-0633d817db7b}, !- Cooling Setpoint Temperature Schedule Name
  0;                                      !- Temperature Difference Between Cutout And Setpoint {deltaC}

OS:ScheduleTypeLimits,
  {6669daac-6674-472a-8228-88d2ec2305a3}, !- Handle
  Temperature,                            !- Name
  ,                                       !- Lower Limit Value
  ,                                       !- Upper Limit Value
  Continuous,                             !- Numeric Type
  Temperature;                            !- Unit Type

OS:Surface,
  {96fe63dc-7e86-4db1-b5c1-3131aa512305}, !- Handle
  Roof1,                                  !- Name
  RoofCeiling,                            !- Surface Type
  {8c109d10-ac21-4b07-a567-317572c89e18}, !- Construction Name
  {9eedb632-95f0-4d17-8d7c-5d844b3ef4e1}, !- Space Name
  Outdoors,                               !- Outside Boundary Condition
  ,                                       !- Outside Boundary Condition Object
  SunExposed,                             !- Sun Exposure
  WindExposed,                            !- Wind Exposure
  ,                                       !- View Factor to Ground
  ,                                       !- Number of Vertices
  9.8030170292795, 22.3990406761293, 2.4384, !- X,Y,Z Vertex 1 {m}
  9.8030170292795, 11.1328146279089, 8.0715130241102, !- X,Y,Z Vertex 2 {m}
  22.3990406761293, 11.1328146279089, 8.0715130241102, !- X,Y,Z Vertex 3 {m}
  22.3990406761293, 22.3990406761293, 2.4384; !- X,Y,Z Vertex 4 {m}

OS:AdditionalProperties,
  {7789be45-b79b-4f25-826e-77b3090e1968}, !- Handle
  {96fe63dc-7e86-4db1-b5c1-3131aa512305}, !- Object Name
  Length,                                 !- Feature Name 1
  Double,                                 !- Feature Data Type 1
  41.325536899113608,                     !- Feature Value 1
  Width,                                  !- Feature Name 2
  Double,                                 !- Feature Data Type 2
  41.325536899113601,                     !- Feature Value 2
  Azimuth,                                !- Feature Name 3
  Integer,                                !- Feature Data Type 3
  0,                                      !- Feature Value 3
  Tilt,                                   !- Feature Name 4
  Double,                                 !- Feature Data Type 4
  0.5,                                    !- Feature Value 4
  SurfaceType,                            !- Feature Name 5
  String,                                 !- Feature Data Type 5
  Roof;                                   !- Feature Value 5

OS:ThermalZone,
  {7cffb301-bc2b-4495-86e6-295efe07e7c1}, !- Handle
  attic - vented,                         !- Name
  1,                                      !- Multiplier
  ,                                       !- Ceiling Height {m}
  356.389957095237,                       !- Volume {m3}
  ,                                       !- Floor Area {m2}
  ,                                       !- Zone Inside Convection Algorithm
  ,                                       !- Zone Outside Convection Algorithm
  ,                                       !- Zone Conditioning Equipment List Name
  {f4b5aa16-2977-467b-b25f-374131c406da}, !- Zone Air Inlet Port List
  {a7707efe-6d09-4e9c-8563-34627e8f6170}, !- Zone Air Exhaust Port List
  {f1ee946f-6428-4de0-8779-8d7cb43e514f}, !- Zone Air Node Name
  {ca6bf82f-8f58-4085-af04-fba888395e9f}, !- Zone Return Air Port List
  ,                                       !- Primary Daylighting Control Name
  ,                                       !- Fraction of Zone Controlled by Primary Daylighting Control
  ,                                       !- Secondary Daylighting Control Name
  ,                                       !- Fraction of Zone Controlled by Secondary Daylighting Control
  ,                                       !- Illuminance Map Name
  ,                                       !- Group Rendering Name
  ,                                       !- Thermostat Name
  No;                                     !- Use Ideal Air Loads

OS:Node,
  {b54131c8-75d7-468a-a2f6-7e36758e8f19}, !- Handle
  Node 2,                                 !- Name
  {f1ee946f-6428-4de0-8779-8d7cb43e514f}, !- Inlet Port
  ;                                       !- Outlet Port

OS:Connection,
  {f1ee946f-6428-4de0-8779-8d7cb43e514f}, !- Handle
  {7cffb301-bc2b-4495-86e6-295efe07e7c1}, !- Source Object
  11,                                     !- Outlet Port
  {b54131c8-75d7-468a-a2f6-7e36758e8f19}, !- Target Object
  2;                                      !- Inlet Port

OS:PortList,
  {f4b5aa16-2977-467b-b25f-374131c406da}, !- Handle
  {7cffb301-bc2b-4495-86e6-295efe07e7c1}; !- HVAC Component

OS:PortList,
  {a7707efe-6d09-4e9c-8563-34627e8f6170}, !- Handle
  {7cffb301-bc2b-4495-86e6-295efe07e7c1}; !- HVAC Component

OS:PortList,
  {ca6bf82f-8f58-4085-af04-fba888395e9f}, !- Handle
  {7cffb301-bc2b-4495-86e6-295efe07e7c1}; !- HVAC Component

OS:Sizing:Zone,
  {a3a25770-2f05-4bab-86c5-61c899a273a3}, !- Handle
  {7cffb301-bc2b-4495-86e6-295efe07e7c1}, !- Zone or ZoneList Name
  SupplyAirTemperature,                   !- Zone Cooling Design Supply Air Temperature Input Method
  14,                                     !- Zone Cooling Design Supply Air Temperature {C}
  11.11,                                  !- Zone Cooling Design Supply Air Temperature Difference {deltaC}
  SupplyAirTemperature,                   !- Zone Heating Design Supply Air Temperature Input Method
  40,                                     !- Zone Heating Design Supply Air Temperature {C}
  11.11,                                  !- Zone Heating Design Supply Air Temperature Difference {deltaC}
  0.0085,                                 !- Zone Cooling Design Supply Air Humidity Ratio {kg-H2O/kg-air}
  0.008,                                  !- Zone Heating Design Supply Air Humidity Ratio {kg-H2O/kg-air}
  ,                                       !- Zone Heating Sizing Factor
  ,                                       !- Zone Cooling Sizing Factor
  DesignDay,                              !- Cooling Design Air Flow Method
  ,                                       !- Cooling Design Air Flow Rate {m3/s}
  ,                                       !- Cooling Minimum Air Flow per Zone Floor Area {m3/s-m2}
  ,                                       !- Cooling Minimum Air Flow {m3/s}
  ,                                       !- Cooling Minimum Air Flow Fraction
  DesignDay,                              !- Heating Design Air Flow Method
  ,                                       !- Heating Design Air Flow Rate {m3/s}
  ,                                       !- Heating Maximum Air Flow per Zone Floor Area {m3/s-m2}
  ,                                       !- Heating Maximum Air Flow {m3/s}
  ,                                       !- Heating Maximum Air Flow Fraction
  No,                                     !- Account for Dedicated Outdoor Air System
  NeutralSupplyAir,                       !- Dedicated Outdoor Air System Control Strategy
  autosize,                               !- Dedicated Outdoor Air Low Setpoint Temperature for Design {C}
  autosize,                               !- Dedicated Outdoor Air High Setpoint Temperature for Design {C}
  Sensible Load Only No Latent Load,      !- Zone Load Sizing Method
  HumidityRatioDifference,                !- Zone Latent Cooling Design Supply Air Humidity Ratio Input Method
  ,                                       !- Zone Dehumidification Design Supply Air Humidity Ratio {kgWater/kgDryAir}
  0.005,                                  !- Zone Cooling Design Supply Air Humidity Ratio Difference {kgWater/kgDryAir}
  HumidityRatioDifference,                !- Zone Latent Heating Design Supply Air Humidity Ratio Input Method
  ,                                       !- Zone Humidification Design Supply Air Humidity Ratio {kgWater/kgDryAir}
  0.005,                                  !- Zone Humidification Design Supply Air Humidity Ratio Difference {kgWater/kgDryAir}
  ,                                       !- Zone Humidistat Dehumidification Set Point Schedule Name
  ,                                       !- Zone Humidistat Humidification Set Point Schedule Name
  ,                                       !- Design Zone Air Distribution Effectiveness in Cooling Mode
  ,                                       !- Design Zone Air Distribution Effectiveness in Heating Mode
  ,                                       !- Design Zone Secondary Recirculation Fraction {dimensionless}
  ,                                       !- Design Minimum Zone Ventilation Efficiency {dimensionless}
  Coincident;                             !- Sizing Option

OS:ZoneHVAC:EquipmentList,
  {2f8fd405-b1a4-4a7f-9da6-c5b06ba31400}, !- Handle
  Zone HVAC Equipment List 2,             !- Name
  {7cffb301-bc2b-4495-86e6-295efe07e7c1}; !- Thermal Zone

OS:AdditionalProperties,
  {6515b33e-b0fd-4c53-ba4a-427acafd5f35}, !- Handle
  {7cffb301-bc2b-4495-86e6-295efe07e7c1}, !- Object Name
  ObjectType,                             !- Feature Name 1
  String,                                 !- Feature Data Type 1
  attic - vented;                         !- Feature Value 1

OS:Space,
  {9eedb632-95f0-4d17-8d7c-5d844b3ef4e1}, !- Handle
  attic - vented 1,                       !- Name
  ,                                       !- Space Type Name
  ,                                       !- Default Construction Set Name
  ,                                       !- Default Schedule Set Name
  ,                                       !- Direction of Relative North {deg}
  ,                                       !- X Origin {m}
  ,                                       !- Y Origin {m}
  ,                                       !- Z Origin {m}
  ,                                       !- Building Story Name
  {7cffb301-bc2b-4495-86e6-295efe07e7c1}, !- Thermal Zone Name
  ,                                       !- Part of Total Floor Area
  ,                                       !- Design Specification Outdoor Air Object Name
  ,                                       !- Building Unit Name
  356.389957095237;                       !- Volume {m3}

OS:Material,
  {9bb17cec-4d37-4717-917b-688ec3974326}, !- Handle
  asphalt or fiberglass shingles,         !- Name
  Rough,                                  !- Roughness
  0.00635,                                !- Thickness {m}
  0.162714,                               !- Conductivity {W/m-K}
  1121.4,                                 !- Density {kg/m3}
  1465.45,                                !- Specific Heat {J/kg-K}
  0.9,                                    !- Thermal Absorptance
  0.85,                                   !- Solar Absorptance