
OS:Version,
  {90ef0e0d-1aa8-4346-b530-165ebc3b943d}, !- Handle
  3.10.0;                                 !- Version Identifier

OS:SimulationControl,
  {b4bd9b59-cd36-49a2-b1fc-8e976e71d502}, !- Handle
  ,                                       !- Do Zone Sizing Calculation
  ,                                       !- Do System Sizing Calculation
  ,                                       !- Do Plant Sizing Calculation
  No;                                     !- Run Simulation for Sizing Periods

OS:Timestep,
  {52cab06d-3387-4b8e-b9af-64ad42699f84}, !- Handle
  1;                                      !- Number of Timesteps per Hour

OS:ShadowCalculation,
  {7de1f8a9-81a2-4f3e-9754-71fbb1f9ccab}, !- Handle
  PolygonClipping,                        !- Shading Calculation Method
  ,                                       !- Shading Calculation Update Frequency Method
  20,                                     !- Shading Calculation Update Frequency
  200,                                    !- Maximum Figures in Shadow Overlap Calculations
  ,                                       !- Polygon Clipping Algorithm
  512,                                    !- Pixel Counting Resolution
  ,                                       !- Sky Diffuse Modeling Algorithm
  No,                                     !- Output External Shading Calculation Results
  No,                                     !- Disable Self-Shading Within Shading Zone Groups
  No;                                     !- Disable Self-Shading From Shading Zone Groups to Other Zones

OS:SurfaceConvectionAlgorithm:Outside,
  {f1f5a4e7-587e-4d0f-b10f-eb24476189ce}, !- Handle
  DOE-2;                                  !- Algorithm

OS:SurfaceConvectionAlgorithm:Inside,
  {989cc371-2068-466e-bc3e-fb3ea5d757a1}, !- Handle
  TARP;                                   !- Algorithm

OS:ZoneCapacitanceMultiplier:ResearchSpecial,
  {fb1f1919-9871-4aba-bf0e-e996f130779e}, !- Handle
  7,                                      !- Temperature Capacity Multiplier
  15,                                     !- Humidity Capacity Multiplier
  ;                                       !- Carbon Dioxide Capacity Multiplier

OS:ConvergenceLimits,
  {d44c454f-5aee-4311-bfbe-eed8b5e9a9d3}, !- Handle
  0;                                      !- Minimum System Timestep {minutes}

OS:RunPeriod,
  {4cbe39ff-bc54-4b25-862a-0a4d0d6b1bda}, !- Handle
  Run Period 1,                           !- Name
  1,                                      !- Begin Month
  1,                                      !- Begin Day of Month
  12,                                     !- End Month
  31,                                     !- End Day of Month
  ,                                       !- Use Weather File Holidays and Special Days
  ,                                       !- Use Weather File Daylight Saving Period
  ,                                       !- Apply Weekend Holiday Rule
  ,                                       !- Use Weather File Rain Indicators
  ,                                       !- Use Weather File Snow Indicators
  ;                                       !- Number of Times Runperiod to be Repeated

OS:PerformancePrecisionTradeoffs,
  {ddc87a96-3fa1-4316-91a3-4420b42cf4bc}, !- Handle
  ,                                       !- Use Coil Direct Solutions
  CarrollMRT;                             !- Zone Radiant Exchange Algorithm

OS:WeatherFile,
  {31c2b454-5eb5-45e7-bb68-e24dabbe02f9}, !- Handle
  Buffalo Niagara Intl Ap,                !- City
  NY,                                     !- State Province Region
  USA,                                    !- Country
  TMY3,                                   !- Data Source
  725280,                                 !- WMO Number
  42.93,                                  !- Latitude {deg}
  -78.73,                                 !- Longitude {deg}
  -5,                                     !- Time Zone {hr}
  215,                                    !- Elevation {m}
  /Users/nmoore/github/urbanopt-example-geojson-project/example_project/weather/USA_NY_Buffalo-Greater.Buffalo.Intl.AP.725280_TMY3.epw, !- Url
  6B50E0FF,                               !- Checksum
  ,                                       !- Start Date Actual Year
  Sunday;                                 !- Start Day of Week

OS:YearDescription,
  {205190f9-1476-4f3d-93ff-52d61e030bab}, !- Handle
  2007,                                   !- Calendar Year
  ,                                       !- Day of Week for Start Day
  ;                                       !- Is Leap Year

OS:Site,
  {93f02b19-8040-4b1d-b27b-dc40d3635032}, !- Handle
  Buffalo Niagara Intl Ap_NY,             !- Name
  42.93,                                  !- Latitude {deg}
  -78.73,                                 !- Longitude {deg}
  -5,                                     !- Time Zone {hr}
  215,                                    !- Elevation {m}
  Suburbs,                                !- Terrain
  Yes;                                    !- Keep Site Location Information

OS:RunPeriodControl:DaylightSavingTime,
  {f0595d00-4a7a-4081-b2ff-68d85dcb0a5a}, !- Handle
  Mar 12,                                 !- Start Date
  Nov 5;                                  !- End Date

OS:Site:GroundTemperature:Shallow,
  {25205733-716a-4d19-9605-9a1ee2f062b6}, !- Handle
  4.30207395723828,                       !- January Surface Ground Temperature {C}
  2.29327249652502,                       !- February Surface Ground Temperature {C}
  2.13240047156047,                       !- March Surface Ground Temperature {C}
  3.08567940719286,                       !- April Surface Ground Temperature {C}
  6.91256312497526,                       !- May Surface Ground Temperature {C}
  10.7216195949507,                       !- June Surface Ground Temperature {C}
  14.0238679822574,                       !- July Surface Ground Temperature {C}
  16.1157611184724,                       !- August Surface Ground Temperature {C}
  16.2934789303462,                       !- September Surface Ground Temperature {C}
  14.5920754632847,                       !- October Surface Ground Temperature {C}
  11.374036348653,                        !- November Surface Ground Temperature {C}
  7.68182621661674;                       !- December Surface Ground Temperature {C}

OS:ThermalZone,
  {86df0dd1-c825-4b5d-b12e-2b3d10186a95}, !- Handle
  conditioned space,                      !- Name
  1,                                      !- Multiplier
  ,                                       !- Ceiling Height {m}
  692.06373070848,                        !- Volume {m3}
  ,                                       !- Floor Area {m2}
  ,                                       !- Zone Inside Convection Algorithm
  ,                                       !- Zone Outside Convection Algorithm
  ,                                       !- Zone Conditioning Equipment List Name
  {d1625da9-8307-4732-9d7a-d941ffdf958d}, !- Zone Air Inlet Port List
  {caa0f56c-6fd9-4559-8a80-41fe3784cb9c}, !- Zone Air Exhaust Port List
  {9fb9b70c-dbb9-46f9-a6bc-9a8ef38a45b2}, !- Zone Air Node Name
  {42d07f94-02b2-4176-a10e-c88355038c5e}, !- Zone Return Air Port List
  ,                                       !- Primary Daylighting Control Name
  ,                                       !- Fraction of Zone Controlled by Primary Daylighting Control
  ,                                       !- Secondary Daylighting Control Name
  ,                                       !- Fraction of Zone Controlled by Secondary Daylighting Control
  ,                                       !- Illuminance Map Name
  ,                                       !- Group Rendering Name
  {30e5f1a1-66b2-4a69-95de-56908426612a}, !- Thermostat Name
  No;                                     !- Use Ideal Air Loads

OS:Node,
  {4e9807ff-6403-4eb0-8154-ef63429a8e9b}, !- Handle
  Node 1,                                 !- Name
  {9fb9b70c-dbb9-46f9-a6bc-9a8ef38a45b2}, !- Inlet Port
  ;                                       !- Outlet Port

OS:Connection,
  {9fb9b70c-dbb9-46f9-a6bc-9a8ef38a45b2}, !- Handle
  {86df0dd1-c825-4b5d-b12e-2b3d10186a95}, !- Source Object
  11,                                     !- Outlet Port
  {4e9807ff-6403-4eb0-8154-ef63429a8e9b}, !- Target Object
  2;                                      !- Inlet Port

OS:PortList,
  {d1625da9-8307-4732-9d7a-d941ffdf958d}, !- Handle
  {86df0dd1-c825-4b5d-b12e-2b3d10186a95}, !- HVAC Component
  {1459d44c-1624-4e4e-ad69-378c6860832f}; !- Port 1

OS:PortList,
  {caa0f56c-6fd9-4559-8a80-41fe3784cb9c}, !- Handle
  {86df0dd1-c825-4b5d-b12e-2b3d10186a95}; !- HVAC Component

OS:PortList,
  {42d07f94-02b2-4176-a10e-c88355038c5e}, !- Handle
  {86df0dd1-c825-4b5d-b12e-2b3d10186a95}, !- HVAC Component
  {94ccae93-ca8a-4044-afca-b479e6d593e1}; !- Port 1

OS:Sizing:Zone,
  {f8176804-294c-4bfe-9553-fd03ac447c37}, !- Handle
  {86df0dd1-c825-4b5d-b12e-2b3d10186a95}, !- Zone or ZoneList Name
  SupplyAirTemperature,                   !- Zone Cooling Design Supply Air Temperature Input Method
  14,                                     !- Zone Cooling Design Supply Air Temperature {C}
  11.11,                                  !- Zone Cooling Design Supply Air Temperature Difference {deltaC}
  SupplyAirTemperature,                   !- Zone Heating Design Supply Air Temperature Input Method
  40,                                     !- Zone Heating Design Supply Air Temperature {C}
  11.11,                                  !- Zone Heating Design Supply Air Temperature Difference {deltaC}
  0.0085,                                 !- Zone Cooling Design Supply Air Humidity Ratio {kg-H2O/kg-air}
  0.008,                                  !- Zone Heating Design Supply Air Humidity Ratio {kg-H2O/kg-air}
  ,                                       !- Zone Heating Sizing Factor
  ,                                       !- Zone Cooling Sizing Factor
  DesignDay,                              !- Cooling Design Air Flow Method
  ,                                       !- Cooling Design Air Flow Rate {m3/s}
  ,                                       !- Cooling Minimum Air Flow per Zone Floor Area {m3/s-m2}
  ,                                       !- Cooling Minimum Air Flow {m3/s}
  ,                                       !- Cooling Minimum Air Flow Fraction
  DesignDay,                              !- Heating Design Air Flow Method
  ,                                       !- Heating Design Air Flow Rate {m3/s}
  ,                                       !- Heating Maximum Air Flow per Zone Floor Area {m3/s-m2}
  ,                                       !- Heating Maximum Air Flow {m3/s}
  ,                                       !- Heating Maximum Air Flow Fraction
  No,                                     !- Account for Dedicated Outdoor Air System
  NeutralSupplyAir,                       !- Dedicated Outdoor Air System Control Strategy
  autosize,                               !- Dedicated Outdoor Air Low Setpoint Temperature for Design {C}
  autosize,                               !- Dedicated Outdoor Air High Setpoint Temperature for Design {C}
  Sensible Load Only No Latent Load,      !- Zone Load Sizing Method
  HumidityRatioDifference,                !- Zone Latent Cooling Design Supply Air Humidity Ratio Input Method
  ,                                       !- Zone Dehumidification Design Supply Air Humidity Ratio {kgWater/kgDryAir}
  0.005,                                  !- Zone Cooling Design Supply Air Humidity Ratio Difference {kgWater/kgDryAir}
  HumidityRatioDifference,                !- Zone Latent Heating Design Supply Air Humidity Ratio Input Method
  ,                                       !- Zone Humidification Design Supply Air Humidity Ratio {kgWater/kgDryAir}
  0.005,                                  !- Zone Humidification Design Supply Air Humidity Ratio Difference {kgWater/kgDryAir}
  ,                                       !- Zone Humidistat Dehumidification Set Point Schedule Name
  ,                                       !- Zone Humidistat Humidification Set Point Schedule Name
  ,                                       !- Design Zone Air Distribution Effectiveness in Cooling Mode
  ,                                       !- Design Zone Air Distribution Effectiveness in Heating Mode
  ,                                       !- Design Zone Secondary Recirculation Fraction {dimensionless}
  ,                                       !- Design Minimum Zone Ventilation Efficiency {dimensionless}
  Coincident;                             !- Sizing Option

OS:ZoneHVAC:EquipmentList,
  {29bb962f-2edc-41a8-ac17-c67f47829fcb}, !- Handle
  Zone HVAC Equipment List 1,             !- Name
  {86df0dd1-c825-4b5d-b12e-2b3d10186a95}, !- Thermal Zone
  ,                                       !- Load Distribution Scheme
  {9bd1c5ef-280d-4fe3-b413-4ba03002ab12}, !- Zone Equipment 1
  1,                                      !- Zone Equipment Cooling Sequence 1
  1,                                      !- Zone Equipment Heating or No-Load Sequence 1
  {cd4407a4-74ae-46dc-a081-38ec76a43027}, !- Zone Equipment Sequential Cooling Fraction Schedule Name 1
  {60c2cb47-2c2e-41ab-8b35-66d09b66c5a8}; !- Zone Equipment Sequential Heating Fraction Schedule Name 1

OS:AdditionalProperties,
  {2deb4425-7a61-447b-a3c3-8a1262dcf1dc}, !- Handle
  {86df0dd1-c825-4b5d-b12e-2b3d10186a95}, !- Object Name
  ObjectType,                             !- Feature Name 1
  String,                                 !- Feature Data Type 1
  conditioned space;                      !- Feature Value 1

OS:Space,
  {483cc36c-b7a8-4e7e-add0-c28ea0d81357}, !- Handle
  conditioned space 1,                    !- Name
  ,                                       !- Space Type Name
  ,                                       !- Default Construction Set Name
  ,                                       !- Default Schedule Set Name
  ,                                       !- Direction of Relative North {deg}
  ,                                       !- X Origin {m}
  ,                                       !- Y Origin {m}
  ,                                       !- Z Origin {m}
  ,                                       !- Building Story Name
  {86df0dd1-c825-4b5d-b12e-2b3d10186a95}, !- Thermal Zone Name
  ,                                       !- Part of Total Floor Area
  ,                                       !- Design Specification Outdoor Air Object Name
  ,                                       !- Building Unit Name
  692.06373070848;                        !- Volume {m3}

OS:Schedule:Ruleset,
  {01f53bfe-c83a-4e03-aef2-ef1ddd4f6af8}, !- Handle
  heating setpoint,                       !- Name
  {52e3d6b1-4f87-4ae1-91a0-208fb56216de}, !- Schedule Type Limits Name
  {c07a5c6e-b63b-4b86-a399-011560ed7260}; !- Default Day Schedule Name

OS:Schedule:Day,
  {c07a5c6e-b63b-4b86-a399-011560ed7260}, !- Handle
  heating setpoint default day,           !- Name
  {52e3d6b1-4f87-4ae1-91a0-208fb56216de}, !- Schedule Type Limits Name
  ,                                       !- Interpolate to Timestep
  24,                                     !- Hour 1
  0,                                      !- Minute 1
  0;                                      !- Value Until Time 1

OS:Schedule:Rule,
  {860ba9ad-e869-4fe8-be17-37e1d792f1d6}, !- Handle
  heating setpoint allday rule,           !- Name
  {01f53bfe-c83a-4e03-aef2-ef1ddd4f6af8}, !- Schedule Ruleset Name
  0,                                      !- Rule Order
  {ed3d1fba-881f-4924-97b1-9e9f6c9ae46b}, !- Day Schedule Name
  Yes,                                    !- Apply Sunday
  Yes,                                    !- Apply Monday
  Yes,                                    !- Apply Tuesday
  Yes,                                    !- Apply Wednesday
  Yes,                                    !- Apply Thursday
  Yes,                                    !- Apply Friday
  Yes,                                    !- Apply Saturday
  DateRange,                              !- Date Specification Type
  1,                                      !- Start Month
  1,                                      !- Start Day
  12,                                     !- End Month
  31;                                     !- End Day

OS:Schedule:Day,
  {ed3d1fba-881f-4924-97b1-9e9f6c9ae46b}, !- Handle
  heating setpoint day,                   !- Name
  {52e3d6b1-4f87-4ae1-91a0-208fb56216de}, !- Schedule Type Limits Name
  ,                                       !- Interpolate to Timestep
  24,                                     !- Hour 1
  0,                                      !- Minute 1
  20;                                     !- Value Until Time 1

OS:Schedule:Ruleset,
  {66648d8d-8644-4c23-bc23-2bd236d87046}, !- Handle
  cooling setpoint,                       !- Name
  {52e3d6b1-4f87-4ae1-91a0-208fb56216de}, !- Schedule Type Limits Name
  {f26c8bac-b718-40fa-b922-ee147f623a66}; !- Default Day Schedule Name

OS:Schedule:Day,
  {f26c8bac-b718-40fa-b922-ee147f623a66}, !- Handle
  cooling setpoint default day,           !- Name
  {52e3d6b1-4f87-4ae1-91a0-208fb56216de}, !- Schedule Type Limits Name
  ,                                       !- Interpolate to Timestep
  24,                                     !- Hour 1
  0,                                      !- Minute 1
  0;                                      !- Value Until Time 1

OS:Schedule:Rule,
  {b6e85808-97b2-4f1d-9a94-f3651c1ca867}, !- Handle
  cooling setpoint allday rule,           !- Name
  {66648d8d-8644-4c23-bc23-2bd236d87046}, !- Schedule Ruleset Name
  0,                                      !- Rule Order
  {c18612d0-3e1c-4bd6-ada3-3b45829a85e3}, !- Day Schedule Name
  Yes,                                    !- Apply Sunday
  Yes,                                    !- Apply Monday
  Yes,                                    !- Apply Tuesday
  Yes,                                    !- Apply Wednesday
  Yes,                                    !- Apply Thursday
  Yes,                                    !- Apply Friday
  Yes,                                    !- Apply Saturday
  DateRange,                              !- Date Specification Type
  1,                                      !- Start Month
  1,                                      !- Start Day
  12,                                     !- End Month
  31;                                     !- End Day

OS:Schedule:Day,
  {c18612d0-3e1c-4bd6-ada3-3b45829a85e3}, !- Handle
  cooling setpoint day,                   !- Name
  {52e3d6b1-4f87-4ae1-91a0-208fb56216de}, !- Schedule Type Limits Name
  ,                                       !- Interpolate to Timestep
  24,                                     !- Hour 1
  0,                                      !- Minute 1
  25.5555555555556;                       !- Value Until Time 1

OS:ThermostatSetpoint:DualSetpoint,
  {30e5f1a1-66b2-4a69-95de-56908426612a}, !- Handle
  conditioned space temperature setpoint, !- Name
  {01f53bfe-c83a-4e03-aef2-ef1ddd4f6af8}, !- Heating Setpoint Temperature Schedule Name
  {66648d8d-8644-4c23-bc23-2bd236d87046}, !- Cooling Setpoint Temperature Schedule Name
  0;                                      !- Temperature Difference Between Cutout And Setpoint {deltaC}

OS:ScheduleTypeLimits,
  {52e3d6b1-4f87-4ae1-91a0-208fb56216de}, !- Handle
  Temperature,                            !- Name
  ,                                       !- Lower Limit Value
  ,                                       !- Upper Limit Value
  Continuous,                             !- Numeric Type
  Temperature;                            !- Unit Type

OS:Surface,
  {d4ae9d97-8e1e-410d-a97b-d058e7b96eee}, !- Handle
  Roof1,                                  !- Name
  RoofCeiling,                            !- Surface Type
  {be39088f-bd41-4086-9ef2-d9a14913256f}, !- Construction Name
  {92947e95-8cf8-4dd6-a6bc-887d899c1c87}, !- Space Name
  Outdoors,                               !- Outside Boundary Condition
  ,                                       !- Outside Boundary Condition Object
  SunExposed,                             !- Sun Exposure
  WindExposed,                            !- Wind Exposure
  ,                                       !- View Factor to Ground
  ,                                       !- Number of Vertices
  9.8030170292795, 22.3990406761293, 2.4384, !- X,Y,Z Vertex 1 {m}
  9.8030170292795, 11.1328146279089, 8.0715130241102, !- X,Y,Z Vertex 2 {m}
  22.3990406761293, 11.1328146279089, 8.0715130241102, !- X,Y,Z Vertex 3 {m}
  22.3990406761293, 22.3990406761293, 2.4384; !- X,Y,Z Vertex 4 {m}

OS:AdditionalProperties,
  {debe33d8-8f37-4e24-823f-cbc61af7f467}, !- Handle
  {d4ae9d97-8e1e-410d-a97b-d058e7b96eee}, !- Object Name
  Length,                                 !- Feature Name 1
  Double,                                 !- Feature Data Type 1
  41.325536899113608,                     !- Feature Value 1
  Width,                                  !- Feature Name 2
  Double,                                 !- Feature Data Type 2
  41.325536899113601,                     !- Feature Value 2
  Azimuth,                                !- Feature Name 3
  Integer,                                !- Feature Data Type 3
  0,                                      !- Feature Value 3
  Tilt,                                   !- Feature Name 4
  Double,                                 !- Feature Data Type 4
  0.5,                                    !- Feature Value 4
  SurfaceType,                            !- Feature Name 5
  String,                                 !- Feature Data Type 5
  Roof;                                   !- Feature Value 5

OS:ThermalZone,
  {e4dfe183-7658-4f40-8837-0b82891fd083}, !- Handle
  attic - vented,                         !- Name
  1,                                      !- Multiplier
  ,                                       !- Ceiling Height {m}
  356.390921899745,                       !- Volume {m3}
  ,                                       !- Floor Area {m2}
  ,                                       !- Zone Inside Convection Algorithm
  ,                                       !- Zone Outside Convection Algorithm
  ,                                       !- Zone Conditioning Equipment List Name
  {bb4ff958-f2a7-4bf0-9d85-9842edc51a68}, !- Zone Air Inlet Port List
  {322873c9-8c24-4edb-96df-9d02ae4b4b0d}, !- Zone Air Exhaust Port List
  {a5661d5c-08f0-4b5a-aa79-959b08d3b0ff}, !- Zone Air Node Name
  {29519adc-e817-473f-9be5-08185b7a42f1}, !- Zone Return Air Port List
  ,                                       !- Primary Daylighting Control Name
  ,                                       !- Fraction of Zone Controlled by Primary Daylighting Control
  ,                                       !- Secondary Daylighting Control Name
  ,                                       !- Fraction of Zone Controlled by Secondary Daylighting Control
  ,                                       !- Illuminance Map Name
  ,                                       !- Group Rendering Name
  ,                                       !- Thermostat Name
  No;                                     !- Use Ideal Air Loads

OS:Node,
  {9b46ca98-40fd-4c4d-b8fb-e8b61e32f840}, !- Handle
  Node 2,                                 !- Name
  {a5661d5c-08f0-4b5a-aa79-959b08d3b0ff}, !- Inlet Port
  ;                                       !- Outlet Port

OS:Connection,
  {a5661d5c-08f0-4b5a-aa79-959b08d3b0ff}, !- Handle
  {e4dfe183-7658-4f40-8837-0b82891fd083}, !- Source Object
  11,                                     !- Outlet Port
  {9b46ca98-40fd-4c4d-b8fb-e8b61e32f840}, !- Target Object
  2;                                      !- Inlet Port

OS:PortList,
  {bb4ff958-f2a7-4bf0-9d85-9842edc51a68}, !- Handle
  {e4dfe183-7658-4f40-8837-0b82891fd083}; !- HVAC Component

OS:PortList,
  {322873c9-8c24-4edb-96df-9d02ae4b4b0d}, !- Handle
  {e4dfe183-7658-4f40-8837-0b82891fd083}; !- HVAC Component

OS:PortList,
  {29519adc-e817-473f-9be5-08185b7a42f1}, !- Handle
  {e4dfe183-7658-4f40-8837-0b82891fd083}; !- HVAC Component

OS:Sizing:Zone,
  {cc2befd1-c55f-4c83-9b69-776f81ecd560}, !- Handle
  {e4dfe183-7658-4f40-8837-0b82891fd083}, !- Zone or ZoneList Name
  SupplyAirTemperature,                   !- Zone Cooling Design Supply Air Temperature Input Method
  14,                                     !- Zone Cooling Design Supply Air Temperature {C}
  11.11,                                  !- Zone Cooling Design Supply Air Temperature Difference {deltaC}
  SupplyAirTemperature,                   !- Zone Heating Design Supply Air Temperature Input Method
  40,                                     !- Zone Heating Design Supply Air Temperature {C}
  11.11,                                  !- Zone Heating Design Supply Air Temperature Difference {deltaC}
  0.0085,                                 !- Zone Cooling Design Supply Air Humidity Ratio {kg-H2O/kg-air}
  0.008,                                  !- Zone Heating Design Supply Air Humidity Ratio {kg-H2O/kg-air}
  ,                                       !- Zone Heating Sizing Factor
  ,                                       !- Zone Cooling Sizing Factor
  DesignDay,                              !- Cooling Design Air Flow Method
  ,                                       !- Cooling Design Air Flow Rate {m3/s}
  ,                                       !- Cooling Minimum Air Flow per Zone Floor Area {m3/s-m2}
  ,                                       !- Cooling Minimum Air Flow {m3/s}
  ,                                       !- Cooling Minimum Air Flow Fraction
  DesignDay,                              !- Heating Design Air Flow Method
  ,                                       !- Heating Design Air Flow Rate {m3/s}
  ,                                       !- Heating Maximum Air Flow per Zone Floor Area {m3/s-m2}
  ,                                       !- Heating Maximum Air Flow {m3/s}
  ,                                       !- Heating Maximum Air Flow Fraction
  No,                                     !- Account for Dedicated Outdoor Air System
  NeutralSupplyAir,                       !- Dedicated Outdoor Air System Control Strategy
  autosize,                               !- Dedicated Outdoor Air Low Setpoint Temperature for Design {C}
  autosize,                               !- Dedicated Outdoor Air High Setpoint Temperature for Design {C}
  Sensible Load Only No Latent Load,      !- Zone Load Sizing Method
  HumidityRatioDifference,                !- Zone Latent Cooling Design Supply Air Humidity Ratio Input Method
  ,                                       !- Zone Dehumidification Design Supply Air Humidity Ratio {kgWater/kgDryAir}
  0.005,                                  !- Zone Cooling Design Supply Air Humidity Ratio Difference {kgWater/kgDryAir}
  HumidityRatioDifference,                !- Zone Latent Heating Design Supply Air Humidity Ratio Input Method
  ,                                       !- Zone Humidification Design Supply Air Humidity Ratio {kgWater/kgDryAir}
  0.005,                                  !- Zone Humidification Design Supply Air Humidity Ratio Difference {kgWater/kgDryAir}
  ,                                       !- Zone Humidistat Dehumidification Set Point Schedule Name
  ,                                       !- Zone Humidistat Humidification Set Point Schedule Name
  ,                                       !- Design Zone Air Distribution Effectiveness in Cooling Mode
  ,                                       !- Design Zone Air Distribution Effectiveness in Heating Mode
  ,                                       !- Design Zone Secondary Recirculation Fraction {dimensionless}
  ,                                       !- Design Minimum Zone Ventilation Efficiency {dimensionless}
  Coincident;                             !- Sizing Option

OS:ZoneHVAC:EquipmentList,
  {e322c327-869d-4377-a859-c2af8b2423e0}, !- Handle
  Zone HVAC Equipment List 2,             !- Name
  {e4dfe183-7658-4f40-8837-0b82891fd083}; !- Thermal Zone

OS:AdditionalProperties,
  {78dd4caf-c1d6-4494-a26b-7abcda42ad1f}, !- Handle
  {e4dfe183-7658-4f40-8837-0b82891fd083}, !- Object Name
  ObjectType,                             !- Feature Name 1
  String,                                 !- Feature Data Type 1
  attic - vented;                         !- Feature Value 1

OS:Space,
  {92947e95-8cf8-4dd6-a6bc-887d899c1c87}, !- Handle
  attic - vented 1,                       !- Name
  ,                                       !- Space Type Name
  ,                                       !- Default Construction Set Name
  ,                                       !- Default Schedule Set Name
  ,                                       !- Direction of Relative North {deg}
  ,                                       !- X Origin {m}
  ,                                       !- Y Origin {m}
  ,                                       !- Z Origin {m}
  ,                                       !- Building Story Name
  {e4dfe183-7658-4f40-8837-0b82891fd083}, !- Thermal Zone Name
  ,                                       !- Part of Total Floor Area
  ,                                       !- Design Specification Outdoor Air Object Name
  ,                                       !- Building Unit Name
  356.390921899745;                       !- Volume {m3}

OS:Material,
  {9cf938b1-66ce-4d8e-94d5-8800be50e386}, !- Handle
  asphalt or fiberglass shingles,         !- Name
  Rough,                                  !- Roughness
  0.00635,                                !- Thickness {m}
  0.162714,                               !- Conductivity {W/m-K}
  1121.4,                                 !- Density {kg/m3}
  1465.45,                                !- Specific Heat {J/kg-K}
  0.9,                                    !- Thermal Absorptance
  0.85,                                   !- Solar Absorptance