
OS:Version,
  {977c2565-7410-46d9-b766-b2c721eb7140}, !- Handle
  3.9.0;                                  !- Version Identifier

OS:SimulationControl,
  {11120b52-c0e8-4f67-b8f3-3953724d477d}, !- Handle
  ,                                       !- Do Zone Sizing Calculation
  ,                                       !- Do System Sizing Calculation
  ,                                       !- Do Plant Sizing Calculation
  No;                                     !- Run Simulation for Sizing Periods

OS:Timestep,
  {1a92db45-cca2-4842-8158-99187744a263}, !- Handle
  1;                                      !- Number of Timesteps per Hour

OS:ShadowCalculation,
  {e99f8320-b611-4c3d-bde1-4a11535f69e4}, !- Handle
  PolygonClipping,                        !- Shading Calculation Method
  ,                                       !- Shading Calculation Update Frequency Method
  20,                                     !- Shading Calculation Update Frequency
  200,                                    !- Maximum Figures in Shadow Overlap Calculations
  ,                                       !- Polygon Clipping Algorithm
  512,                                    !- Pixel Counting Resolution
  ,                                       !- Sky Diffuse Modeling Algorithm
  No,                                     !- Output External Shading Calculation Results
  No,                                     !- Disable Self-Shading Within Shading Zone Groups
  No;                                     !- Disable Self-Shading From Shading Zone Groups to Other Zones

OS:SurfaceConvectionAlgorithm:Outside,
  {01fe2cff-1e06-42d7-881c-e551c8f651d3}, !- Handle
  DOE-2;                                  !- Algorithm

OS:SurfaceConvectionAlgorithm:Inside,
  {561646bc-1c67-43f2-9407-1fd6910e21e5}, !- Handle
  TARP;                                   !- Algorithm

OS:ZoneCapacitanceMultiplier:ResearchSpecial,
  {e144f13d-0b21-472d-8655-112e59578fab}, !- Handle
  7,                                      !- Temperature Capacity Multiplier
  15,                                     !- Humidity Capacity Multiplier
  ;                                       !- Carbon Dioxide Capacity Multiplier

OS:ConvergenceLimits,
  {e0189767-8e44-4597-bc6e-cd873ecb6465}, !- Handle
  0;                                      !- Minimum System Timestep {minutes}

OS:RunPeriod,
  {c8e2fca4-ec60-4565-95ef-311548d08f03}, !- Handle
  Run Period 1,                           !- Name
  1,                                      !- Begin Month
  1,                                      !- Begin Day of Month
  12,                                     !- End Month
  31,                                     !- End Day of Month
  ,                                       !- Use Weather File Holidays and Special Days
  ,                                       !- Use Weather File Daylight Saving Period
  ,                                       !- Apply Weekend Holiday Rule
  ,                                       !- Use Weather File Rain Indicators
  ,                                       !- Use Weather File Snow Indicators
  ;                                       !- Number of Times Runperiod to be Repeated

OS:PerformancePrecisionTradeoffs,
  {af7f1ab6-233d-4c0a-b31b-350e4e3d1e02}, !- Handle
  ,                                       !- Use Coil Direct Solutions
  CarrollMRT;                             !- Zone Radiant Exchange Algorithm

OS:WeatherFile,
  {4517b574-cad1-4cda-a643-911046c77a3e}, !- Handle
  Buffalo Niagara Intl Ap,                !- City
  NY,                                     !- State Province Region
  USA,                                    !- Country
  TMY3,                                   !- Data Source
  725280,                                 !- WMO Number
  42.93,                                  !- Latitude {deg}
  -78.73,                                 !- Longitude {deg}
  -5,                                     !- Time Zone {hr}
  215,                                    !- Elevation {m}
  /Users/nmoore/github/urbanopt-example-geojson-project/example_project/weather/USA_NY_Buffalo-Greater.Buffalo.Intl.AP.725280_TMY3.epw, !- Url
  6B50E0FF,                               !- Checksum
  ,                                       !- Start Date Actual Year
  Sunday;                                 !- Start Day of Week

OS:YearDescription,
  {0260255f-5a4b-4a39-b9ba-a79333232f02}, !- Handle
  2007,                                   !- Calendar Year
  ,                                       !- Day of Week for Start Day
  ;                                       !- Is Leap Year

OS:Site,
  {63db9f12-e41b-4dd4-8cf3-5f14dd6d81f6}, !- Handle
  Buffalo Niagara Intl Ap_NY,             !- Name
  42.93,                                  !- Latitude {deg}
  -78.73,                                 !- Longitude {deg}
  -5,                                     !- Time Zone {hr}
  215,                                    !- Elevation {m}
  Suburbs,                                !- Terrain
  Yes;                                    !- Keep Site Location Information

OS:RunPeriodControl:DaylightSavingTime,
  {2dda189b-4cba-4a13-9f24-e2d3e88592b8}, !- Handle
  Mar 12,                                 !- Start Date
  Nov 5;                                  !- End Date

OS:Site:GroundTemperature:Shallow,
  {d3527e23-3505-417f-bf31-5d8bb521e256}, !- Handle
  4.30207395723828,                       !- January Surface Ground Temperature {C}
  2.29327249652502,                       !- February Surface Ground Temperature {C}
  2.13240047156047,                       !- March Surface Ground Temperature {C}
  3.08567940719286,                       !- April Surface Ground Temperature {C}
  6.91256312497526,                       !- May Surface Ground Temperature {C}
  10.7216195949507,                       !- June Surface Ground Temperature {C}
  14.0238679822574,                       !- July Surface Ground Temperature {C}
  16.1157611184724,                       !- August Surface Ground Temperature {C}
  16.2934789303462,                       !- September Surface Ground Temperature {C}
  14.5920754632847,                       !- October Surface Ground Temperature {C}
  11.374036348653,                        !- November Surface Ground Temperature {C}
  7.68182621661674;                       !- December Surface Ground Temperature {C}

OS:ThermalZone,
  {518d2bb4-989b-456d-b043-3805a2147524}, !- Handle
  conditioned space,                      !- Name
  1,                                      !- Multiplier
  ,                                       !- Ceiling Height {m}
  692.06373070848,                        !- Volume {m3}
  ,                                       !- Floor Area {m2}
  ,                                       !- Zone Inside Convection Algorithm
  ,                                       !- Zone Outside Convection Algorithm
  ,                                       !- Zone Conditioning Equipment List Name
  {bf8db1da-270a-42b8-b130-bae8fa012ee9}, !- Zone Air Inlet Port List
  {0bfd2ace-045a-4c05-898b-91a0e2d854c8}, !- Zone Air Exhaust Port List
  {63f5b8aa-b486-4b60-af42-52849e93526b}, !- Zone Air Node Name
  {f0166e81-de0a-4d03-9862-11c524915ca0}, !- Zone Return Air Port List
  ,                                       !- Primary Daylighting Control Name
  ,                                       !- Fraction of Zone Controlled by Primary Daylighting Control
  ,                                       !- Secondary Daylighting Control Name
  ,                                       !- Fraction of Zone Controlled by Secondary Daylighting Control
  ,                                       !- Illuminance Map Name
  ,                                       !- Group Rendering Name
  {75e1a5a0-39f3-42cb-b4ca-aeed78c3b7af}, !- Thermostat Name
  No;                                     !- Use Ideal Air Loads

OS:Node,
  {070ae610-bd03-49be-ba2a-cc984aa59791}, !- Handle
  Node 1,                                 !- Name
  {63f5b8aa-b486-4b60-af42-52849e93526b}, !- Inlet Port
  ;                                       !- Outlet Port

OS:Connection,
  {63f5b8aa-b486-4b60-af42-52849e93526b}, !- Handle
  {518d2bb4-989b-456d-b043-3805a2147524}, !- Source Object
  11,                                     !- Outlet Port
  {070ae610-bd03-49be-ba2a-cc984aa59791}, !- Target Object
  2;                                      !- Inlet Port

OS:PortList,
  {bf8db1da-270a-42b8-b130-bae8fa012ee9}, !- Handle
  {518d2bb4-989b-456d-b043-3805a2147524}, !- HVAC Component
  {12155874-c000-4984-ab5d-4f505104868e}; !- Port 1

OS:PortList,
  {0bfd2ace-045a-4c05-898b-91a0e2d854c8}, !- Handle
  {518d2bb4-989b-456d-b043-3805a2147524}; !- HVAC Component

OS:PortList,
  {f0166e81-de0a-4d03-9862-11c524915ca0}, !- Handle
  {518d2bb4-989b-456d-b043-3805a2147524}, !- HVAC Component
  {0d3943fb-044a-45ed-88b2-0953a7eafa9d}; !- Port 1

OS:Sizing:Zone,
  {8204366c-12b9-4b00-8963-faadff3376ce}, !- Handle
  {518d2bb4-989b-456d-b043-3805a2147524}, !- Zone or ZoneList Name
  SupplyAirTemperature,                   !- Zone Cooling Design Supply Air Temperature Input Method
  14,                                     !- Zone Cooling Design Supply Air Temperature {C}
  11.11,                                  !- Zone Cooling Design Supply Air Temperature Difference {deltaC}
  SupplyAirTemperature,                   !- Zone Heating Design Supply Air Temperature Input Method
  40,                                     !- Zone Heating Design Supply Air Temperature {C}
  11.11,                                  !- Zone Heating Design Supply Air Temperature Difference {deltaC}
  0.0085,                                 !- Zone Cooling Design Supply Air Humidity Ratio {kg-H2O/kg-air}
  0.008,                                  !- Zone Heating Design Supply Air Humidity Ratio {kg-H2O/kg-air}
  ,                                       !- Zone Heating Sizing Factor
  ,                                       !- Zone Cooling Sizing Factor
  DesignDay,                              !- Cooling Design Air Flow Method
  ,                                       !- Cooling Design Air Flow Rate {m3/s}
  ,                                       !- Cooling Minimum Air Flow per Zone Floor Area {m3/s-m2}
  ,                                       !- Cooling Minimum Air Flow {m3/s}
  ,                                       !- Cooling Minimum Air Flow Fraction
  DesignDay,                              !- Heating Design Air Flow Method
  ,                                       !- Heating Design Air Flow Rate {m3/s}
  ,                                       !- Heating Maximum Air Flow per Zone Floor Area {m3/s-m2}
  ,                                       !- Heating Maximum Air Flow {m3/s}
  ,                                       !- Heating Maximum Air Flow Fraction
  No,                                     !- Account for Dedicated Outdoor Air System
  NeutralSupplyAir,                       !- Dedicated Outdoor Air System Control Strategy
  autosize,                               !- Dedicated Outdoor Air Low Setpoint Temperature for Design {C}
  autosize,                               !- Dedicated Outdoor Air High Setpoint Temperature for Design {C}
  Sensible Load Only No Latent Load,      !- Zone Load Sizing Method
  HumidityRatioDifference,                !- Zone Latent Cooling Design Supply Air Humidity Ratio Input Method
  ,                                       !- Zone Dehumidification Design Supply Air Humidity Ratio {kgWater/kgDryAir}
  0.005,                                  !- Zone Cooling Design Supply Air Humidity Ratio Difference {kgWater/kgDryAir}
  HumidityRatioDifference,                !- Zone Latent Heating Design Supply Air Humidity Ratio Input Method
  ,                                       !- Zone Humidification Design Supply Air Humidity Ratio {kgWater/kgDryAir}
  0.005,                                  !- Zone Humidification Design Supply Air Humidity Ratio Difference {kgWater/kgDryAir}
  ,                                       !- Zone Humidistat Dehumidification Set Point Schedule Name
  ,                                       !- Zone Humidistat Humidification Set Point Schedule Name
  ,                                       !- Design Zone Air Distribution Effectiveness in Cooling Mode
  ,                                       !- Design Zone Air Distribution Effectiveness in Heating Mode
  ,                                       !- Design Zone Secondary Recirculation Fraction {dimensionless}
  ,                                       !- Design Minimum Zone Ventilation Efficiency {dimensionless}
  Coincident;                             !- Sizing Option

OS:ZoneHVAC:EquipmentList,
  {fdc58a67-5f3e-465b-a474-8894a09e6253}, !- Handle
  Zone HVAC Equipment List 1,             !- Name
  {518d2bb4-989b-456d-b043-3805a2147524}, !- Thermal Zone
  ,                                       !- Load Distribution Scheme
  {2e5d3b6e-a512-4ac5-8e29-6f2cf5a8a0a5}, !- Zone Equipment 1
  1,                                      !- Zone Equipment Cooling Sequence 1
  1,                                      !- Zone Equipment Heating or No-Load Sequence 1
  {e633fad7-780e-46bd-8794-8e4c7a941924}, !- Zone Equipment Sequential Cooling Fraction Schedule Name 1
  {b63bbd85-e51a-4069-90f3-1dcac6c7501b}; !- Zone Equipment Sequential Heating Fraction Schedule Name 1

OS:AdditionalProperties,
  {707bd0a2-5caf-401f-9651-e1e9bc2b9d6c}, !- Handle
  {518d2bb4-989b-456d-b043-3805a2147524}, !- Object Name
  ObjectType,                             !- Feature Name 1
  String,                                 !- Feature Data Type 1
  conditioned space;                      !- Feature Value 1

OS:Space,
  {eb054894-89e0-4f02-bb0b-9bf0cbe7fb63}, !- Handle
  conditioned space 1,                    !- Name
  ,                                       !- Space Type Name
  ,                                       !- Default Construction Set Name
  ,                                       !- Default Schedule Set Name
  ,                                       !- Direction of Relative North {deg}
  ,                                       !- X Origin {m}
  ,                                       !- Y Origin {m}
  ,                                       !- Z Origin {m}
  ,                                       !- Building Story Name
  {518d2bb4-989b-456d-b043-3805a2147524}, !- Thermal Zone Name
  ,                                       !- Part of Total Floor Area
  ,                                       !- Design Specification Outdoor Air Object Name
  ,                                       !- Building Unit Name
  692.06373070848;                        !- Volume {m3}

OS:Schedule:Ruleset,
  {57a53516-3700-4cc6-b9bd-c769cc345780}, !- Handle
  heating setpoint,                       !- Name
  {57c069f8-6139-4d8f-aa5c-8aaf6539a5e7}, !- Schedule Type Limits Name
  {960d2494-90b8-44bf-a88e-5aabb2229325}; !- Default Day Schedule Name

OS:Schedule:Day,
  {960d2494-90b8-44bf-a88e-5aabb2229325}, !- Handle
  heating setpoint default day,           !- Name
  {57c069f8-6139-4d8f-aa5c-8aaf6539a5e7}, !- Schedule Type Limits Name
  ,                                       !- Interpolate to Timestep
  24,                                     !- Hour 1
  0,                                      !- Minute 1
  0;                                      !- Value Until Time 1

OS:Schedule:Rule,
  {dac74f76-1268-48b4-a51d-ec9294668a0c}, !- Handle
  heating setpoint allday rule,           !- Name
  {57a53516-3700-4cc6-b9bd-c769cc345780}, !- Schedule Ruleset Name
  0,                                      !- Rule Order
  {79d51590-5599-4889-9d1b-80d8ba9676f7}, !- Day Schedule Name
  Yes,                                    !- Apply Sunday
  Yes,                                    !- Apply Monday
  Yes,                                    !- Apply Tuesday
  Yes,                                    !- Apply Wednesday
  Yes,                                    !- Apply Thursday
  Yes,                                    !- Apply Friday
  Yes,                                    !- Apply Saturday
  DateRange,                              !- Date Specification Type
  1,                                      !- Start Month
  1,                                      !- Start Day
  12,                                     !- End Month
  31;                                     !- End Day

OS:Schedule:Day,
  {79d51590-5599-4889-9d1b-80d8ba9676f7}, !- Handle
  heating setpoint day,                   !- Name
  {57c069f8-6139-4d8f-aa5c-8aaf6539a5e7}, !- Schedule Type Limits Name
  ,                                       !- Interpolate to Timestep
  24,                                     !- Hour 1
  0,                                      !- Minute 1
  20;                                     !- Value Until Time 1

OS:Schedule:Ruleset,
  {b5dd9ea4-77a7-4d71-9165-98e46deff73d}, !- Handle
  cooling setpoint,                       !- Name
  {57c069f8-6139-4d8f-aa5c-8aaf6539a5e7}, !- Schedule Type Limits Name
  {bc9f3232-de64-41d2-97f4-352be3e788cf}; !- Default Day Schedule Name

OS:Schedule:Day,
  {bc9f3232-de64-41d2-97f4-352be3e788cf}, !- Handle
  cooling setpoint default day,           !- Name
  {57c069f8-6139-4d8f-aa5c-8aaf6539a5e7}, !- Schedule Type Limits Name
  ,                                       !- Interpolate to Timestep
  24,                                     !- Hour 1
  0,                                      !- Minute 1
  0;                                      !- Value Until Time 1

OS:Schedule:Rule,
  {20ec6979-587f-45c5-acc9-cb1f0a3ae0b4}, !- Handle
  cooling setpoint allday rule,           !- Name
  {b5dd9ea4-77a7-4d71-9165-98e46deff73d}, !- Schedule Ruleset Name
  0,                                      !- Rule Order
  {f132a0a6-b794-4e33-9110-3efdfd74dbe7}, !- Day Schedule Name
  Yes,                                    !- Apply Sunday
  Yes,                                    !- Apply Monday
  Yes,                                    !- Apply Tuesday
  Yes,                                    !- Apply Wednesday
  Yes,                                    !- Apply Thursday
  Yes,                                    !- Apply Friday
  Yes,                                    !- Apply Saturday
  DateRange,                              !- Date Specification Type
  1,                                      !- Start Month
  1,                                      !- Start Day
  12,                                     !- End Month
  31;                                     !- End Day

OS:Schedule:Day,
  {f132a0a6-b794-4e33-9110-3efdfd74dbe7}, !- Handle
  cooling setpoint day,                   !- Name
  {57c069f8-6139-4d8f-aa5c-8aaf6539a5e7}, !- Schedule Type Limits Name
  ,                                       !- Interpolate to Timestep
  24,                                     !- Hour 1
  0,                                      !- Minute 1
  25.5555555555556;                       !- Value Until Time 1

OS:ThermostatSetpoint:DualSetpoint,
  {75e1a5a0-39f3-42cb-b4ca-aeed78c3b7af}, !- Handle
  conditioned space temperature setpoint, !- Name
  {57a53516-3700-4cc6-b9bd-c769cc345780}, !- Heating Setpoint Temperature Schedule Name
  {b5dd9ea4-77a7-4d71-9165-98e46deff73d}, !- Cooling Setpoint Temperature Schedule Name
  0;                                      !- Temperature Difference Between Cutout And Setpoint {deltaC}

OS:ScheduleTypeLimits,
  {57c069f8-6139-4d8f-aa5c-8aaf6539a5e7}, !- Handle
  Temperature,                            !- Name
  ,                                       !- Lower Limit Value
  ,                                       !- Upper Limit Value
  Continuous,                             !- Numeric Type
  Temperature;                            !- Unit Type

OS:Surface,
  {8bf974c4-f3e2-4801-b71d-e502ddca3b3d}, !- Handle
  Roof1,                                  !- Name
  RoofCeiling,                            !- Surface Type
  {ad08db9b-f11e-48fc-a9e1-b4e79825d071}, !- Construction Name
  {710ea3c7-693d-42c8-a97f-c2565d823ed9}, !- Space Name
  Outdoors,                               !- Outside Boundary Condition
  ,                                       !- Outside Boundary Condition Object
  SunExposed,                             !- Sun Exposure
  WindExposed,                            !- Wind Exposure
  ,                                       !- View Factor to Ground
  ,                                       !- Number of Vertices
  -26.9347048849634, 58.0557891618865, 2.4384, !- X,Y,Z Vertex 1 {m}
  -26.9347048849634, 46.7895631136661, 8.0715130241102, !- X,Y,Z Vertex 2 {m}
  -14.3386812381136, 46.7895631136661, 8.0715130241102, !- X,Y,Z Vertex 3 {m}
  -14.3386812381136, 58.0557891618865, 2.4384; !- X,Y,Z Vertex 4 {m}

OS:AdditionalProperties,
  {eecc230d-8228-4b33-9f2e-68850a5fb85c}, !- Handle
  {8bf974c4-f3e2-4801-b71d-e502ddca3b3d}, !- Object Name
  Length,                                 !- Feature Name 1
  Double,                                 !- Feature Data Type 1
  41.325536899113608,                     !- Feature Value 1
  Width,                                  !- Feature Name 2
  Double,                                 !- Feature Data Type 2
  41.325536899113601,                     !- Feature Value 2
  Azimuth,                                !- Feature Name 3
  Integer,                                !- Feature Data Type 3
  0,                                      !- Feature Value 3
  Tilt,                                   !- Feature Name 4
  Double,                                 !- Feature Data Type 4
  0.5,                                    !- Feature Value 4
  SurfaceType,                            !- Feature Name 5
  String,                                 !- Feature Data Type 5
  Roof;                                   !- Feature Value 5

OS:ThermalZone,
  {a382b83d-a230-4491-a7f9-51afea8af01e}, !- Handle
  attic - vented,                         !- Name
  1,                                      !- Multiplier
  ,                                       !- Ceiling Height {m}
  356.389957095237,                       !- Volume {m3}
  ,                                       !- Floor Area {m2}
  ,                                       !- Zone Inside Convection Algorithm
  ,                                       !- Zone Outside Convection Algorithm
  ,                                       !- Zone Conditioning Equipment List Name
  {e0b90d4e-acc0-4251-a5b3-54a14dd6e9d8}, !- Zone Air Inlet Port List
  {6924ed35-09e6-4ce0-b80c-be7b5a5dd676}, !- Zone Air Exhaust Port List
  {0c67ed81-f7e7-412c-861b-6a259886b2b3}, !- Zone Air Node Name
  {2fd71614-a04b-4eb3-8fd2-901c406000af}, !- Zone Return Air Port List
  ,                                       !- Primary Daylighting Control Name
  ,                                       !- Fraction of Zone Controlled by Primary Daylighting Control
  ,                                       !- Secondary Daylighting Control Name
  ,                                       !- Fraction of Zone Controlled by Secondary Daylighting Control
  ,                                       !- Illuminance Map Name
  ,                                       !- Group Rendering Name
  ,                                       !- Thermostat Name
  No;                                     !- Use Ideal Air Loads

OS:Node,
  {ec1b7a90-8d91-4da8-b64d-25a2c4b94748}, !- Handle
  Node 2,                                 !- Name
  {0c67ed81-f7e7-412c-861b-6a259886b2b3}, !- Inlet Port
  ;                                       !- Outlet Port

OS:Connection,
  {0c67ed81-f7e7-412c-861b-6a259886b2b3}, !- Handle
  {a382b83d-a230-4491-a7f9-51afea8af01e}, !- Source Object
  11,                                     !- Outlet Port
  {ec1b7a90-8d91-4da8-b64d-25a2c4b94748}, !- Target Object
  2;                                      !- Inlet Port

OS:PortList,
  {e0b90d4e-acc0-4251-a5b3-54a14dd6e9d8}, !- Handle
  {a382b83d-a230-4491-a7f9-51afea8af01e}; !- HVAC Component

OS:PortList,
  {6924ed35-09e6-4ce0-b80c-be7b5a5dd676}, !- Handle
  {a382b83d-a230-4491-a7f9-51afea8af01e}; !- HVAC Component

OS:PortList,
  {2fd71614-a04b-4eb3-8fd2-901c406000af}, !- Handle
  {a382b83d-a230-4491-a7f9-51afea8af01e}; !- HVAC Component

OS:Sizing:Zone,
  {62440cc0-8264-42d7-bf6f-45c29f2c1185}, !- Handle
  {a382b83d-a230-4491-a7f9-51afea8af01e}, !- Zone or ZoneList Name
  SupplyAirTemperature,                   !- Zone Cooling Design Supply Air Temperature Input Method
  14,                                     !- Zone Cooling Design Supply Air Temperature {C}
  11.11,                                  !- Zone Cooling Design Supply Air Temperature Difference {deltaC}
  SupplyAirTemperature,                   !- Zone Heating Design Supply Air Temperature Input Method
  40,                                     !- Zone Heating Design Supply Air Temperature {C}
  11.11,                                  !- Zone Heating Design Supply Air Temperature Difference {deltaC}
  0.0085,                                 !- Zone Cooling Design Supply Air Humidity Ratio {kg-H2O/kg-air}
  0.008,                                  !- Zone Heating Design Supply Air Humidity Ratio {kg-H2O/kg-air}
  ,                                       !- Zone Heating Sizing Factor
  ,                                       !- Zone Cooling Sizing Factor
  DesignDay,                              !- Cooling Design Air Flow Method
  ,                                       !- Cooling Design Air Flow Rate {m3/s}
  ,                                       !- Cooling Minimum Air Flow per Zone Floor Area {m3/s-m2}
  ,                                       !- Cooling Minimum Air Flow {m3/s}
  ,                                       !- Cooling Minimum Air Flow Fraction
  DesignDay,                              !- Heating Design Air Flow Method
  ,                                       !- Heating Design Air Flow Rate {m3/s}
  ,                                       !- Heating Maximum Air Flow per Zone Floor Area {m3/s-m2}
  ,                                       !- Heating Maximum Air Flow {m3/s}
  ,                                       !- Heating Maximum Air Flow Fraction
  No,                                     !- Account for Dedicated Outdoor Air System
  NeutralSupplyAir,                       !- Dedicated Outdoor Air System Control Strategy
  autosize,                               !- Dedicated Outdoor Air Low Setpoint Temperature for Design {C}
  autosize,                               !- Dedicated Outdoor Air High Setpoint Temperature for Design {C}
  Sensible Load Only No Latent Load,      !- Zone Load Sizing Method
  HumidityRatioDifference,                !- Zone Latent Cooling Design Supply Air Humidity Ratio Input Method
  ,                                       !- Zone Dehumidification Design Supply Air Humidity Ratio {kgWater/kgDryAir}
  0.005,                                  !- Zone Cooling Design Supply Air Humidity Ratio Difference {kgWater/kgDryAir}
  HumidityRatioDifference,                !- Zone Latent Heating Design Supply Air Humidity Ratio Input Method
  ,                                       !- Zone Humidification Design Supply Air Humidity Ratio {kgWater/kgDryAir}
  0.005,                                  !- Zone Humidification Design Supply Air Humidity Ratio Difference {kgWater/kgDryAir}
  ,                                       !- Zone Humidistat Dehumidification Set Point Schedule Name
  ,                                       !- Zone Humidistat Humidification Set Point Schedule Name
  ,                                       !- Design Zone Air Distribution Effectiveness in Cooling Mode
  ,                                       !- Design Zone Air Distribution Effectiveness in Heating Mode
  ,                                       !- Design Zone Secondary Recirculation Fraction {dimensionless}
  ,                                       !- Design Minimum Zone Ventilation Efficiency {dimensionless}
  Coincident;                             !- Sizing Option

OS:ZoneHVAC:EquipmentList,
  {5fdb1a0c-4630-4224-b2a7-873e16222894}, !- Handle
  Zone HVAC Equipment List 2,             !- Name
  {a382b83d-a230-4491-a7f9-51afea8af01e}; !- Thermal Zone

OS:AdditionalProperties,
  {f2441779-21c5-4860-b190-15dda6e0f67b}, !- Handle
  {a382b83d-a230-4491-a7f9-51afea8af01e}, !- Object Name
  ObjectType,                             !- Feature Name 1
  String,                                 !- Feature Data Type 1
  attic - vented;                         !- Feature Value 1

OS:Space,
  {710ea3c7-693d-42c8-a97f-c2565d823ed9}, !- Handle
  attic - vented 1,                       !- Name
  ,                                       !- Space Type Name
  ,                                       !- Default Construction Set Name
  ,                                       !- Default Schedule Set Name
  ,                                       !- Direction of Relative North {deg}
  ,                                       !- X Origin {m}
  ,                                       !- Y Origin {m}
  ,                                       !- Z Origin {m}
  ,                                       !- Building Story Name
  {a382b83d-a230-4491-a7f9-51afea8af01e}, !- Thermal Zone Name
  ,                                       !- Part of Total Floor Area
  ,                                       !- Design Specification Outdoor Air Object Name
  ,                                       !- Building Unit Name
  356.389957095237;                       !- Volume {m3}

OS:Material,
  {922cb45d-9dea-48da-8d44-8578670cd308}, !- Handle
  asphalt or fiberglass shingles,         !- Name
  Rough,                                  !- Roughness
  0.00635,                                !- Thickness {m}
  0.162714,                               !- Conductivity {W/m-K}
  1121.4,                                 !- Density {kg/m3}
  1465.45,                                !- Specific Heat {J/kg-K}
  0.9,                                    !- Thermal Absorptance
  0.85,                                   !- Solar Absorptance