
OS:Version,
  {5ff1c0e5-8df3-498d-b642-09056b6e107b}, !- Handle
  3.10.0;                                 !- Version Identifier

OS:SimulationControl,
  {f3a3a83a-95ac-4c40-b29e-74d3291827d8}, !- Handle
  ,                                       !- Do Zone Sizing Calculation
  ,                                       !- Do System Sizing Calculation
  ,                                       !- Do Plant Sizing Calculation
  No;                                     !- Run Simulation for Sizing Periods

OS:Timestep,
  {b543ba33-f8a1-4a40-a869-28b734884bcb}, !- Handle
  1;                                      !- Number of Timesteps per Hour

OS:ShadowCalculation,
  {476c98f9-54d0-4bdd-b653-13c93fc2f78b}, !- Handle
  PolygonClipping,                        !- Shading Calculation Method
  ,                                       !- Shading Calculation Update Frequency Method
  20,                                     !- Shading Calculation Update Frequency
  200,                                    !- Maximum Figures in Shadow Overlap Calculations
  ,                                       !- Polygon Clipping Algorithm
  512,                                    !- Pixel Counting Resolution
  ,                                       !- Sky Diffuse Modeling Algorithm
  No,                                     !- Output External Shading Calculation Results
  No,                                     !- Disable Self-Shading Within Shading Zone Groups
  No;                                     !- Disable Self-Shading From Shading Zone Groups to Other Zones

OS:SurfaceConvectionAlgorithm:Outside,
  {b0eaed10-eb70-401d-9a93-c65ae84dde58}, !- Handle
  DOE-2;                                  !- Algorithm

OS:SurfaceConvectionAlgorithm:Inside,
  {29922f0b-55e4-4ced-9172-6f192f3f583b}, !- Handle
  TARP;                                   !- Algorithm

OS:ZoneCapacitanceMultiplier:ResearchSpecial,
  {361dde7b-e83b-4b65-88f8-9575e5f12516}, !- Handle
  7,                                      !- Temperature Capacity Multiplier
  15,                                     !- Humidity Capacity Multiplier
  ;                                       !- Carbon Dioxide Capacity Multiplier

OS:ConvergenceLimits,
  {dd6828f0-1267-4061-b2cd-9f8aa0fd1fb5}, !- Handle
  0;                                      !- Minimum System Timestep {minutes}

OS:RunPeriod,
  {1dc2537c-ab73-4907-ad44-a6c15f29f895}, !- Handle
  Run Period 1,                           !- Name
  1,                                      !- Begin Month
  1,                                      !- Begin Day of Month
  12,                                     !- End Month
  31,                                     !- End Day of Month
  ,                                       !- Use Weather File Holidays and Special Days
  ,                                       !- Use Weather File Daylight Saving Period
  ,                                       !- Apply Weekend Holiday Rule
  ,                                       !- Use Weather File Rain Indicators
  ,                                       !- Use Weather File Snow Indicators
  ;                                       !- Number of Times Runperiod to be Repeated

OS:PerformancePrecisionTradeoffs,
  {8b07b9bf-00b5-411b-9c2b-c553afa5cabb}, !- Handle
  ,                                       !- Use Coil Direct Solutions
  CarrollMRT;                             !- Zone Radiant Exchange Algorithm

OS:WeatherFile,
  {daa8b1c9-894a-4c73-884b-cfcc92a9a9d1}, !- Handle
  Buffalo Niagara Intl Ap,                !- City
  NY,                                     !- State Province Region
  USA,                                    !- Country
  TMY3,                                   !- Data Source
  725280,                                 !- WMO Number
  42.93,                                  !- Latitude {deg}
  -78.73,                                 !- Longitude {deg}
  -5,                                     !- Time Zone {hr}
  215,                                    !- Elevation {m}
  /Users/nmoore/github/urbanopt-example-geojson-project/example_project/weather/USA_NY_Buffalo-Greater.Buffalo.Intl.AP.725280_TMY3.epw, !- Url
  6B50E0FF,                               !- Checksum
  ,                                       !- Start Date Actual Year
  Sunday;                                 !- Start Day of Week

OS:YearDescription,
  {2b583a1d-d425-4635-b1a1-f710486adb09}, !- Handle
  2007,                                   !- Calendar Year
  ,                                       !- Day of Week for Start Day
  ;                                       !- Is Leap Year

OS:Site,
  {1b5fd81b-891f-464a-bca7-ec0ecc32c4fc}, !- Handle
  Buffalo Niagara Intl Ap_NY,             !- Name
  42.93,                                  !- Latitude {deg}
  -78.73,                                 !- Longitude {deg}
  -5,                                     !- Time Zone {hr}
  215,                                    !- Elevation {m}
  Suburbs,                                !- Terrain
  Yes;                                    !- Keep Site Location Information

OS:RunPeriodControl:DaylightSavingTime,
  {c58ecc92-95f7-42f0-bb1b-632e9402c29e}, !- Handle
  Mar 12,                                 !- Start Date
  Nov 5;                                  !- End Date

OS:Site:GroundTemperature:Shallow,
  {501e3f9d-7409-4b34-add2-96017836d877}, !- Handle
  4.30207395723828,                       !- January Surface Ground Temperature {C}
  2.29327249652502,                       !- February Surface Ground Temperature {C}
  2.13240047156047,                       !- March Surface Ground Temperature {C}
  3.08567940719286,                       !- April Surface Ground Temperature {C}
  6.91256312497526,                       !- May Surface Ground Temperature {C}
  10.7216195949507,                       !- June Surface Ground Temperature {C}
  14.0238679822574,                       !- July Surface Ground Temperature {C}
  16.1157611184724,                       !- August Surface Ground Temperature {C}
  16.2934789303462,                       !- September Surface Ground Temperature {C}
  14.5920754632847,                       !- October Surface Ground Temperature {C}
  11.374036348653,                        !- November Surface Ground Temperature {C}
  7.68182621661674;                       !- December Surface Ground Temperature {C}

OS:ThermalZone,
  {04ee84f5-ee76-4d89-9eb7-c7051bbb716f}, !- Handle
  conditioned space,                      !- Name
  1,                                      !- Multiplier
  ,                                       !- Ceiling Height {m}
  692.06373070848,                        !- Volume {m3}
  ,                                       !- Floor Area {m2}
  ,                                       !- Zone Inside Convection Algorithm
  ,                                       !- Zone Outside Convection Algorithm
  ,                                       !- Zone Conditioning Equipment List Name
  {bff1911e-e262-4561-86e7-0d9480441932}, !- Zone Air Inlet Port List
  {65c94b52-d30c-4f6c-bacb-58895498b2ab}, !- Zone Air Exhaust Port List
  {ff7e934a-0cb6-4a56-ac78-24335be153b5}, !- Zone Air Node Name
  {9946c42b-32da-4229-b98c-d101b7328569}, !- Zone Return Air Port List
  ,                                       !- Primary Daylighting Control Name
  ,                                       !- Fraction of Zone Controlled by Primary Daylighting Control
  ,                                       !- Secondary Daylighting Control Name
  ,                                       !- Fraction of Zone Controlled by Secondary Daylighting Control
  ,                                       !- Illuminance Map Name
  ,                                       !- Group Rendering Name
  {f11f0167-0308-4ace-b613-7b5901fa880a}, !- Thermostat Name
  No;                                     !- Use Ideal Air Loads

OS:Node,
  {ed5004ef-3b51-4761-bfdb-5ae9b34caa7d}, !- Handle
  Node 1,                                 !- Name
  {ff7e934a-0cb6-4a56-ac78-24335be153b5}, !- Inlet Port
  ;                                       !- Outlet Port

OS:Connection,
  {ff7e934a-0cb6-4a56-ac78-24335be153b5}, !- Handle
  {04ee84f5-ee76-4d89-9eb7-c7051bbb716f}, !- Source Object
  11,                                     !- Outlet Port
  {ed5004ef-3b51-4761-bfdb-5ae9b34caa7d}, !- Target Object
  2;                                      !- Inlet Port

OS:PortList,
  {bff1911e-e262-4561-86e7-0d9480441932}, !- Handle
  {04ee84f5-ee76-4d89-9eb7-c7051bbb716f}, !- HVAC Component
  {636f3439-7a2e-4b3b-9e5a-4b6708573766}; !- Port 1

OS:PortList,
  {65c94b52-d30c-4f6c-bacb-58895498b2ab}, !- Handle
  {04ee84f5-ee76-4d89-9eb7-c7051bbb716f}; !- HVAC Component

OS:PortList,
  {9946c42b-32da-4229-b98c-d101b7328569}, !- Handle
  {04ee84f5-ee76-4d89-9eb7-c7051bbb716f}, !- HVAC Component
  {741761ae-1a49-46a3-8c4f-932722ef5ae5}; !- Port 1

OS:Sizing:Zone,
  {8111bdae-41b4-42ed-bfc2-5e1745427e7c}, !- Handle
  {04ee84f5-ee76-4d89-9eb7-c7051bbb716f}, !- Zone or ZoneList Name
  SupplyAirTemperature,                   !- Zone Cooling Design Supply Air Temperature Input Method
  14,                                     !- Zone Cooling Design Supply Air Temperature {C}
  11.11,                                  !- Zone Cooling Design Supply Air Temperature Difference {deltaC}
  SupplyAirTemperature,                   !- Zone Heating Design Supply Air Temperature Input Method
  40,                                     !- Zone Heating Design Supply Air Temperature {C}
  11.11,                                  !- Zone Heating Design Supply Air Temperature Difference {deltaC}
  0.0085,                                 !- Zone Cooling Design Supply Air Humidity Ratio {kg-H2O/kg-air}
  0.008,                                  !- Zone Heating Design Supply Air Humidity Ratio {kg-H2O/kg-air}
  ,                                       !- Zone Heating Sizing Factor
  ,                                       !- Zone Cooling Sizing Factor
  DesignDay,                              !- Cooling Design Air Flow Method
  ,                                       !- Cooling Design Air Flow Rate {m3/s}
  ,                                       !- Cooling Minimum Air Flow per Zone Floor Area {m3/s-m2}
  ,                                       !- Cooling Minimum Air Flow {m3/s}
  ,                                       !- Cooling Minimum Air Flow Fraction
  DesignDay,                              !- Heating Design Air Flow Method
  ,                                       !- Heating Design Air Flow Rate {m3/s}
  ,                                       !- Heating Maximum Air Flow per Zone Floor Area {m3/s-m2}
  ,                                       !- Heating Maximum Air Flow {m3/s}
  ,                                       !- Heating Maximum Air Flow Fraction
  No,                                     !- Account for Dedicated Outdoor Air System
  NeutralSupplyAir,                       !- Dedicated Outdoor Air System Control Strategy
  autosize,                               !- Dedicated Outdoor Air Low Setpoint Temperature for Design {C}
  autosize,                               !- Dedicated Outdoor Air High Setpoint Temperature for Design {C}
  Sensible Load Only No Latent Load,      !- Zone Load Sizing Method
  HumidityRatioDifference,                !- Zone Latent Cooling Design Supply Air Humidity Ratio Input Method
  ,                                       !- Zone Dehumidification Design Supply Air Humidity Ratio {kgWater/kgDryAir}
  0.005,                                  !- Zone Cooling Design Supply Air Humidity Ratio Difference {kgWater/kgDryAir}
  HumidityRatioDifference,                !- Zone Latent Heating Design Supply Air Humidity Ratio Input Method
  ,                                       !- Zone Humidification Design Supply Air Humidity Ratio {kgWater/kgDryAir}
  0.005,                                  !- Zone Humidification Design Supply Air Humidity Ratio Difference {kgWater/kgDryAir}
  ,                                       !- Zone Humidistat Dehumidification Set Point Schedule Name
  ,                                       !- Zone Humidistat Humidification Set Point Schedule Name
  ,                                       !- Design Zone Air Distribution Effectiveness in Cooling Mode
  ,                                       !- Design Zone Air Distribution Effectiveness in Heating Mode
  ,                                       !- Design Zone Secondary Recirculation Fraction {dimensionless}
  ,                                       !- Design Minimum Zone Ventilation Efficiency {dimensionless}
  Coincident;                             !- Sizing Option

OS:ZoneHVAC:EquipmentList,
  {ac1dcaec-b47f-4986-a098-0680ef740503}, !- Handle
  Zone HVAC Equipment List 1,             !- Name
  {04ee84f5-ee76-4d89-9eb7-c7051bbb716f}, !- Thermal Zone
  ,                                       !- Load Distribution Scheme
  {cb69bc95-4a0a-4076-8041-b2d93459137f}, !- Zone Equipment 1
  1,                                      !- Zone Equipment Cooling Sequence 1
  1,                                      !- Zone Equipment Heating or No-Load Sequence 1
  {75b79174-b7b7-4e69-80cc-1af11301e400}, !- Zone Equipment Sequential Cooling Fraction Schedule Name 1
  {277feff6-6701-4b4b-a9fa-965c7fce1d3f}; !- Zone Equipment Sequential Heating Fraction Schedule Name 1

OS:AdditionalProperties,
  {9f423b85-7e2c-4b6f-abaf-40e5a095b03b}, !- Handle
  {04ee84f5-ee76-4d89-9eb7-c7051bbb716f}, !- Object Name
  ObjectType,                             !- Feature Name 1
  String,                                 !- Feature Data Type 1
  conditioned space;                      !- Feature Value 1

OS:Space,
  {a75c4183-9c82-4de8-8d49-d722c15ac5b0}, !- Handle
  conditioned space 1,                    !- Name
  ,                                       !- Space Type Name
  ,                                       !- Default Construction Set Name
  ,                                       !- Default Schedule Set Name
  ,                                       !- Direction of Relative North {deg}
  ,                                       !- X Origin {m}
  ,                                       !- Y Origin {m}
  ,                                       !- Z Origin {m}
  ,                                       !- Building Story Name
  {04ee84f5-ee76-4d89-9eb7-c7051bbb716f}, !- Thermal Zone Name
  ,                                       !- Part of Total Floor Area
  ,                                       !- Design Specification Outdoor Air Object Name
  ,                                       !- Building Unit Name
  692.06373070848;                        !- Volume {m3}

OS:Schedule:Ruleset,
  {fb33d081-700a-4515-a178-a52e387356ce}, !- Handle
  heating setpoint,                       !- Name
  {ad031cd6-0546-400c-9a23-fce97713cf9b}, !- Schedule Type Limits Name
  {2966cfb8-429d-4bfc-a3f4-f8d23a349c4d}; !- Default Day Schedule Name

OS:Schedule:Day,
  {2966cfb8-429d-4bfc-a3f4-f8d23a349c4d}, !- Handle
  heating setpoint default day,           !- Name
  {ad031cd6-0546-400c-9a23-fce97713cf9b}, !- Schedule Type Limits Name
  ,                                       !- Interpolate to Timestep
  24,                                     !- Hour 1
  0,                                      !- Minute 1
  0;                                      !- Value Until Time 1

OS:Schedule:Rule,
  {46eb67c9-feac-43bb-aaa9-175e836d3f8b}, !- Handle
  heating setpoint allday rule,           !- Name
  {fb33d081-700a-4515-a178-a52e387356ce}, !- Schedule Ruleset Name
  0,                                      !- Rule Order
  {53f83f89-c0c6-4ebd-b127-4e6abb86ce2b}, !- Day Schedule Name
  Yes,                                    !- Apply Sunday
  Yes,                                    !- Apply Monday
  Yes,                                    !- Apply Tuesday
  Yes,                                    !- Apply Wednesday
  Yes,                                    !- Apply Thursday
  Yes,                                    !- Apply Friday
  Yes,                                    !- Apply Saturday
  DateRange,                              !- Date Specification Type
  1,                                      !- Start Month
  1,                                      !- Start Day
  12,                                     !- End Month
  31;                                     !- End Day

OS:Schedule:Day,
  {53f83f89-c0c6-4ebd-b127-4e6abb86ce2b}, !- Handle
  heating setpoint day,                   !- Name
  {ad031cd6-0546-400c-9a23-fce97713cf9b}, !- Schedule Type Limits Name
  ,                                       !- Interpolate to Timestep
  24,                                     !- Hour 1
  0,                                      !- Minute 1
  20;                                     !- Value Until Time 1

OS:Schedule:Ruleset,
  {662b57d2-0a0f-4097-a8f7-b67bdb585b29}, !- Handle
  cooling setpoint,                       !- Name
  {ad031cd6-0546-400c-9a23-fce97713cf9b}, !- Schedule Type Limits Name
  {be43170a-de6a-4e03-a1ea-94bf2e616b8c}; !- Default Day Schedule Name

OS:Schedule:Day,
  {be43170a-de6a-4e03-a1ea-94bf2e616b8c}, !- Handle
  cooling setpoint default day,           !- Name
  {ad031cd6-0546-400c-9a23-fce97713cf9b}, !- Schedule Type Limits Name
  ,                                       !- Interpolate to Timestep
  24,                                     !- Hour 1
  0,                                      !- Minute 1
  0;                                      !- Value Until Time 1

OS:Schedule:Rule,
  {34c2a97b-5598-4d9f-a2ed-83367c48b7c8}, !- Handle
  cooling setpoint allday rule,           !- Name
  {662b57d2-0a0f-4097-a8f7-b67bdb585b29}, !- Schedule Ruleset Name
  0,                                      !- Rule Order
  {75b351fc-f6fe-4e52-90e2-ea695f23adad}, !- Day Schedule Name
  Yes,                                    !- Apply Sunday
  Yes,                                    !- Apply Monday
  Yes,                                    !- Apply Tuesday
  Yes,                                    !- Apply Wednesday
  Yes,                                    !- Apply Thursday
  Yes,                                    !- Apply Friday
  Yes,                                    !- Apply Saturday
  DateRange,                              !- Date Specification Type
  1,                                      !- Start Month
  1,                                      !- Start Day
  12,                                     !- End Month
  31;                                     !- End Day

OS:Schedule:Day,
  {75b351fc-f6fe-4e52-90e2-ea695f23adad}, !- Handle
  cooling setpoint day,                   !- Name
  {ad031cd6-0546-400c-9a23-fce97713cf9b}, !- Schedule Type Limits Name
  ,                                       !- Interpolate to Timestep
  24,                                     !- Hour 1
  0,                                      !- Minute 1
  25.5555555555556;                       !- Value Until Time 1

OS:ThermostatSetpoint:DualSetpoint,
  {f11f0167-0308-4ace-b613-7b5901fa880a}, !- Handle
  conditioned space temperature setpoint, !- Name
  {fb33d081-700a-4515-a178-a52e387356ce}, !- Heating Setpoint Temperature Schedule Name
  {662b57d2-0a0f-4097-a8f7-b67bdb585b29}, !- Cooling Setpoint Temperature Schedule Name
  0;                                      !- Temperature Difference Between Cutout And Setpoint {deltaC}

OS:ScheduleTypeLimits,
  {ad031cd6-0546-400c-9a23-fce97713cf9b}, !- Handle
  Temperature,                            !- Name
  ,                                       !- Lower Limit Value
  ,                                       !- Upper Limit Value
  Continuous,                             !- Numeric Type
  Temperature;                            !- Unit Type

OS:Surface,
  {487f0f81-b149-4fae-b2b6-7c69c6e6e499}, !- Handle
  Roof1,                                  !- Name
  RoofCeiling,                            !- Surface Type
  {f07dfcaa-9241-4cfb-9897-b486f7b3e53b}, !- Construction Name
  {2d4022f9-b5c1-4974-90f3-a3eeeb974508}, !- Space Name
  Outdoors,                               !- Outside Boundary Condition
  ,                                       !- Outside Boundary Condition Object
  SunExposed,                             !- Sun Exposure
  WindExposed,                            !- Wind Exposure
  ,                                       !- View Factor to Ground
  ,                                       !- Number of Vertices
  -26.9347048849634, 58.0557891618865, 2.4384, !- X,Y,Z Vertex 1 {m}
  -26.9347048849634, 46.7895631136661, 8.0715130241102, !- X,Y,Z Vertex 2 {m}
  -14.3386812381136, 46.7895631136661, 8.0715130241102, !- X,Y,Z Vertex 3 {m}
  -14.3386812381136, 58.0557891618865, 2.4384; !- X,Y,Z Vertex 4 {m}

OS:AdditionalProperties,
  {99e9d1cc-d218-4475-9c9b-3556a47918e9}, !- Handle
  {487f0f81-b149-4fae-b2b6-7c69c6e6e499}, !- Object Name
  Length,                                 !- Feature Name 1
  Double,                                 !- Feature Data Type 1
  41.325536899113608,                     !- Feature Value 1
  Width,                                  !- Feature Name 2
  Double,                                 !- Feature Data Type 2
  41.325536899113601,                     !- Feature Value 2
  Azimuth,                                !- Feature Name 3
  Integer,                                !- Feature Data Type 3
  0,                                      !- Feature Value 3
  Tilt,                                   !- Feature Name 4
  Double,                                 !- Feature Data Type 4
  0.5,                                    !- Feature Value 4
  SurfaceType,                            !- Feature Name 5
  String,                                 !- Feature Data Type 5
  Roof;                                   !- Feature Value 5

OS:ThermalZone,
  {2674f8d5-994a-4522-bdbd-c77ee1004c5c}, !- Handle
  attic - vented,                         !- Name
  1,                                      !- Multiplier
  ,                                       !- Ceiling Height {m}
  356.390921899745,                       !- Volume {m3}
  ,                                       !- Floor Area {m2}
  ,                                       !- Zone Inside Convection Algorithm
  ,                                       !- Zone Outside Convection Algorithm
  ,                                       !- Zone Conditioning Equipment List Name
  {df27775b-31f9-44f4-a0b0-14db0f5981ce}, !- Zone Air Inlet Port List
  {d2a73ab2-429f-4b9e-b9b8-ff48ba3f7300}, !- Zone Air Exhaust Port List
  {6493ee6b-1f78-4335-ba01-5156649b6c6c}, !- Zone Air Node Name
  {52d3cf50-e65e-48df-b267-e00b62414443}, !- Zone Return Air Port List
  ,                                       !- Primary Daylighting Control Name
  ,                                       !- Fraction of Zone Controlled by Primary Daylighting Control
  ,                                       !- Secondary Daylighting Control Name
  ,                                       !- Fraction of Zone Controlled by Secondary Daylighting Control
  ,                                       !- Illuminance Map Name
  ,                                       !- Group Rendering Name
  ,                                       !- Thermostat Name
  No;                                     !- Use Ideal Air Loads

OS:Node,
  {187f4aee-2839-4161-9637-c3e0b453df9c}, !- Handle
  Node 2,                                 !- Name
  {6493ee6b-1f78-4335-ba01-5156649b6c6c}, !- Inlet Port
  ;                                       !- Outlet Port

OS:Connection,
  {6493ee6b-1f78-4335-ba01-5156649b6c6c}, !- Handle
  {2674f8d5-994a-4522-bdbd-c77ee1004c5c}, !- Source Object
  11,                                     !- Outlet Port
  {187f4aee-2839-4161-9637-c3e0b453df9c}, !- Target Object
  2;                                      !- Inlet Port

OS:PortList,
  {df27775b-31f9-44f4-a0b0-14db0f5981ce}, !- Handle
  {2674f8d5-994a-4522-bdbd-c77ee1004c5c}; !- HVAC Component

OS:PortList,
  {d2a73ab2-429f-4b9e-b9b8-ff48ba3f7300}, !- Handle
  {2674f8d5-994a-4522-bdbd-c77ee1004c5c}; !- HVAC Component

OS:PortList,
  {52d3cf50-e65e-48df-b267-e00b62414443}, !- Handle
  {2674f8d5-994a-4522-bdbd-c77ee1004c5c}; !- HVAC Component

OS:Sizing:Zone,
  {abc0aadc-d47c-400a-8e17-0bbccbb5c35e}, !- Handle
  {2674f8d5-994a-4522-bdbd-c77ee1004c5c}, !- Zone or ZoneList Name
  SupplyAirTemperature,                   !- Zone Cooling Design Supply Air Temperature Input Method
  14,                                     !- Zone Cooling Design Supply Air Temperature {C}
  11.11,                                  !- Zone Cooling Design Supply Air Temperature Difference {deltaC}
  SupplyAirTemperature,                   !- Zone Heating Design Supply Air Temperature Input Method
  40,                                     !- Zone Heating Design Supply Air Temperature {C}
  11.11,                                  !- Zone Heating Design Supply Air Temperature Difference {deltaC}
  0.0085,                                 !- Zone Cooling Design Supply Air Humidity Ratio {kg-H2O/kg-air}
  0.008,                                  !- Zone Heating Design Supply Air Humidity Ratio {kg-H2O/kg-air}
  ,                                       !- Zone Heating Sizing Factor
  ,                                       !- Zone Cooling Sizing Factor
  DesignDay,                              !- Cooling Design Air Flow Method
  ,                                       !- Cooling Design Air Flow Rate {m3/s}
  ,                                       !- Cooling Minimum Air Flow per Zone Floor Area {m3/s-m2}
  ,                                       !- Cooling Minimum Air Flow {m3/s}
  ,                                       !- Cooling Minimum Air Flow Fraction
  DesignDay,                              !- Heating Design Air Flow Method
  ,                                       !- Heating Design Air Flow Rate {m3/s}
  ,                                       !- Heating Maximum Air Flow per Zone Floor Area {m3/s-m2}
  ,                                       !- Heating Maximum Air Flow {m3/s}
  ,                                       !- Heating Maximum Air Flow Fraction
  No,                                     !- Account for Dedicated Outdoor Air System
  NeutralSupplyAir,                       !- Dedicated Outdoor Air System Control Strategy
  autosize,                               !- Dedicated Outdoor Air Low Setpoint Temperature for Design {C}
  autosize,                               !- Dedicated Outdoor Air High Setpoint Temperature for Design {C}
  Sensible Load Only No Latent Load,      !- Zone Load Sizing Method
  HumidityRatioDifference,                !- Zone Latent Cooling Design Supply Air Humidity Ratio Input Method
  ,                                       !- Zone Dehumidification Design Supply Air Humidity Ratio {kgWater/kgDryAir}
  0.005,                                  !- Zone Cooling Design Supply Air Humidity Ratio Difference {kgWater/kgDryAir}
  HumidityRatioDifference,                !- Zone Latent Heating Design Supply Air Humidity Ratio Input Method
  ,                                       !- Zone Humidification Design Supply Air Humidity Ratio {kgWater/kgDryAir}
  0.005,                                  !- Zone Humidification Design Supply Air Humidity Ratio Difference {kgWater/kgDryAir}
  ,                                       !- Zone Humidistat Dehumidification Set Point Schedule Name
  ,                                       !- Zone Humidistat Humidification Set Point Schedule Name
  ,                                       !- Design Zone Air Distribution Effectiveness in Cooling Mode
  ,                                       !- Design Zone Air Distribution Effectiveness in Heating Mode
  ,                                       !- Design Zone Secondary Recirculation Fraction {dimensionless}
  ,                                       !- Design Minimum Zone Ventilation Efficiency {dimensionless}
  Coincident;                             !- Sizing Option

OS:ZoneHVAC:EquipmentList,
  {9db5cb9f-625d-431e-9730-97cbb2773da7}, !- Handle
  Zone HVAC Equipment List 2,             !- Name
  {2674f8d5-994a-4522-bdbd-c77ee1004c5c}; !- Thermal Zone

OS:AdditionalProperties,
  {6f27b17f-e0df-431e-adb0-8e496369759f}, !- Handle
  {2674f8d5-994a-4522-bdbd-c77ee1004c5c}, !- Object Name
  ObjectType,                             !- Feature Name 1
  String,                                 !- Feature Data Type 1
  attic - vented;                         !- Feature Value 1

OS:Space,
  {2d4022f9-b5c1-4974-90f3-a3eeeb974508}, !- Handle
  attic - vented 1,                       !- Name
  ,                                       !- Space Type Name
  ,                                       !- Default Construction Set Name
  ,                                       !- Default Schedule Set Name
  ,                                       !- Direction of Relative North {deg}
  ,                                       !- X Origin {m}
  ,                                       !- Y Origin {m}
  ,                                       !- Z Origin {m}
  ,                                       !- Building Story Name
  {2674f8d5-994a-4522-bdbd-c77ee1004c5c}, !- Thermal Zone Name
  ,                                       !- Part of Total Floor Area
  ,                                       !- Design Specification Outdoor Air Object Name
  ,                                       !- Building Unit Name
  356.390921899745;                       !- Volume {m3}

OS:Material,
  {3d8a4caa-46dd-4917-8c51-ae033f7746b1}, !- Handle
  asphalt or fiberglass shingles,         !- Name
  Rough,                                  !- Roughness
  0.00635,                                !- Thickness {m}
  0.162714,                               !- Conductivity {W/m-K}
  1121.4,                                 !- Density {kg/m3}
  1465.45,                                !- Specific Heat {J/kg-K}
  0.9,                                    !- Thermal Absorptance
  0.85,                                   !- Solar Absorptance