
OS:Version,
  {212536ab-4258-4c9d-9185-27a4555be486}, !- Handle
  3.9.0;                                  !- Version Identifier

OS:SimulationControl,
  {ac7fae23-4b9f-4ea2-97d9-44f6e7292ae5}, !- Handle
  ,                                       !- Do Zone Sizing Calculation
  ,                                       !- Do System Sizing Calculation
  ,                                       !- Do Plant Sizing Calculation
  No;                                     !- Run Simulation for Sizing Periods

OS:Timestep,
  {6d1fb6e2-8540-4d8b-907a-8e3bf52fc793}, !- Handle
  1;                                      !- Number of Timesteps per Hour

OS:ShadowCalculation,
  {3ff66995-1e72-4d08-83be-4372e1e2e6b6}, !- Handle
  PolygonClipping,                        !- Shading Calculation Method
  ,                                       !- Shading Calculation Update Frequency Method
  20,                                     !- Shading Calculation Update Frequency
  200,                                    !- Maximum Figures in Shadow Overlap Calculations
  ,                                       !- Polygon Clipping Algorithm
  512,                                    !- Pixel Counting Resolution
  ,                                       !- Sky Diffuse Modeling Algorithm
  No,                                     !- Output External Shading Calculation Results
  No,                                     !- Disable Self-Shading Within Shading Zone Groups
  No;                                     !- Disable Self-Shading From Shading Zone Groups to Other Zones

OS:SurfaceConvectionAlgorithm:Outside,
  {98cb01c7-0e75-42b5-b86c-b66a25eb0bfd}, !- Handle
  DOE-2;                                  !- Algorithm

OS:SurfaceConvectionAlgorithm:Inside,
  {76caa5c6-7cd4-4eef-87fc-6ca9fdef505f}, !- Handle
  TARP;                                   !- Algorithm

OS:ZoneCapacitanceMultiplier:ResearchSpecial,
  {a06105f2-2595-4ac5-813b-fdb34b4bcb72}, !- Handle
  7,                                      !- Temperature Capacity Multiplier
  15,                                     !- Humidity Capacity Multiplier
  ;                                       !- Carbon Dioxide Capacity Multiplier

OS:ConvergenceLimits,
  {8059f55d-82aa-4ecf-850e-70b7942b70dc}, !- Handle
  0;                                      !- Minimum System Timestep {minutes}

OS:RunPeriod,
  {5f30f7bd-35d1-49d4-aa11-dafc6cb0db68}, !- Handle
  Run Period 1,                           !- Name
  1,                                      !- Begin Month
  1,                                      !- Begin Day of Month
  12,                                     !- End Month
  31,                                     !- End Day of Month
  ,                                       !- Use Weather File Holidays and Special Days
  ,                                       !- Use Weather File Daylight Saving Period
  ,                                       !- Apply Weekend Holiday Rule
  ,                                       !- Use Weather File Rain Indicators
  ,                                       !- Use Weather File Snow Indicators
  ;                                       !- Number of Times Runperiod to be Repeated

OS:PerformancePrecisionTradeoffs,
  {63c17468-d908-44e6-bbf7-593888364ce3}, !- Handle
  ,                                       !- Use Coil Direct Solutions
  CarrollMRT;                             !- Zone Radiant Exchange Algorithm

OS:WeatherFile,
  {a29ebecd-6a60-4b9f-8e77-4157beaefa61}, !- Handle
  Buffalo Niagara Intl Ap,                !- City
  NY,                                     !- State Province Region
  USA,                                    !- Country
  TMY3,                                   !- Data Source
  725280,                                 !- WMO Number
  42.93,                                  !- Latitude {deg}
  -78.73,                                 !- Longitude {deg}
  -5,                                     !- Time Zone {hr}
  215,                                    !- Elevation {m}
  /Users/nmoore/github/urbanopt-example-geojson-project/example_project/weather/USA_NY_Buffalo-Greater.Buffalo.Intl.AP.725280_TMY3.epw, !- Url
  6B50E0FF,                               !- Checksum
  ,                                       !- Start Date Actual Year
  Sunday;                                 !- Start Day of Week

OS:YearDescription,
  {cd4c856e-c6d3-4631-a79e-aad20d86b743}, !- Handle
  2007,                                   !- Calendar Year
  ,                                       !- Day of Week for Start Day
  ;                                       !- Is Leap Year

OS:Site,
  {72c83eb2-1a95-4a24-8d6d-40e686dc7fc7}, !- Handle
  Buffalo Niagara Intl Ap_NY,             !- Name
  42.93,                                  !- Latitude {deg}
  -78.73,                                 !- Longitude {deg}
  -5,                                     !- Time Zone {hr}
  215,                                    !- Elevation {m}
  Suburbs,                                !- Terrain
  Yes;                                    !- Keep Site Location Information

OS:RunPeriodControl:DaylightSavingTime,
  {2fa2a434-611c-4bce-9cdb-a67e73a34e33}, !- Handle
  Mar 12,                                 !- Start Date
  Nov 5;                                  !- End Date

OS:Site:GroundTemperature:Shallow,
  {de0e7670-0e90-4e0c-9c43-3ae37c54e2eb}, !- Handle
  4.30207395723828,                       !- January Surface Ground Temperature {C}
  2.29327249652502,                       !- February Surface Ground Temperature {C}
  2.13240047156047,                       !- March Surface Ground Temperature {C}
  3.08567940719286,                       !- April Surface Ground Temperature {C}
  6.91256312497526,                       !- May Surface Ground Temperature {C}
  10.7216195949507,                       !- June Surface Ground Temperature {C}
  14.0238679822574,                       !- July Surface Ground Temperature {C}
  16.1157611184724,                       !- August Surface Ground Temperature {C}
  16.2934789303462,                       !- September Surface Ground Temperature {C}
  14.5920754632847,                       !- October Surface Ground Temperature {C}
  11.374036348653,                        !- November Surface Ground Temperature {C}
  7.68182621661674;                       !- December Surface Ground Temperature {C}

OS:ThermalZone,
  {306beb31-948d-4196-8a7b-5ceacd0bb165}, !- Handle
  conditioned space,                      !- Name
  1,                                      !- Multiplier
  ,                                       !- Ceiling Height {m}
  692.06373070848,                        !- Volume {m3}
  ,                                       !- Floor Area {m2}
  ,                                       !- Zone Inside Convection Algorithm
  ,                                       !- Zone Outside Convection Algorithm
  ,                                       !- Zone Conditioning Equipment List Name
  {ac64dbeb-9303-4b34-9d60-17bbb43e1843}, !- Zone Air Inlet Port List
  {a946468e-7b4b-4df0-8ebf-e81b800d7f31}, !- Zone Air Exhaust Port List
  {33696d4f-ba5b-4d1d-9b02-23ea2b084dbd}, !- Zone Air Node Name
  {fd7b547b-7c7c-4301-a510-10969f8bfee8}, !- Zone Return Air Port List
  ,                                       !- Primary Daylighting Control Name
  ,                                       !- Fraction of Zone Controlled by Primary Daylighting Control
  ,                                       !- Secondary Daylighting Control Name
  ,                                       !- Fraction of Zone Controlled by Secondary Daylighting Control
  ,                                       !- Illuminance Map Name
  ,                                       !- Group Rendering Name
  {230e745d-e42d-4e3f-8287-28c157958ef4}, !- Thermostat Name
  No;                                     !- Use Ideal Air Loads

OS:Node,
  {bb314536-dc5c-4171-8518-2532b0b898a6}, !- Handle
  Node 1,                                 !- Name
  {33696d4f-ba5b-4d1d-9b02-23ea2b084dbd}, !- Inlet Port
  ;                                       !- Outlet Port

OS:Connection,
  {33696d4f-ba5b-4d1d-9b02-23ea2b084dbd}, !- Handle
  {306beb31-948d-4196-8a7b-5ceacd0bb165}, !- Source Object
  11,                                     !- Outlet Port
  {bb314536-dc5c-4171-8518-2532b0b898a6}, !- Target Object
  2;                                      !- Inlet Port

OS:PortList,
  {ac64dbeb-9303-4b34-9d60-17bbb43e1843}, !- Handle
  {306beb31-948d-4196-8a7b-5ceacd0bb165}; !- HVAC Component

OS:PortList,
  {a946468e-7b4b-4df0-8ebf-e81b800d7f31}, !- Handle
  {306beb31-948d-4196-8a7b-5ceacd0bb165}; !- HVAC Component

OS:PortList,
  {fd7b547b-7c7c-4301-a510-10969f8bfee8}, !- Handle
  {306beb31-948d-4196-8a7b-5ceacd0bb165}; !- HVAC Component

OS:Sizing:Zone,
  {61196c50-5474-4455-9a39-e1c743f020fc}, !- Handle
  {306beb31-948d-4196-8a7b-5ceacd0bb165}, !- Zone or ZoneList Name
  SupplyAirTemperature,                   !- Zone Cooling Design Supply Air Temperature Input Method
  14,                                     !- Zone Cooling Design Supply Air Temperature {C}
  11.11,                                  !- Zone Cooling Design Supply Air Temperature Difference {deltaC}
  SupplyAirTemperature,                   !- Zone Heating Design Supply Air Temperature Input Method
  40,                                     !- Zone Heating Design Supply Air Temperature {C}
  11.11,                                  !- Zone Heating Design Supply Air Temperature Difference {deltaC}
  0.0085,                                 !- Zone Cooling Design Supply Air Humidity Ratio {kg-H2O/kg-air}
  0.008,                                  !- Zone Heating Design Supply Air Humidity Ratio {kg-H2O/kg-air}
  ,                                       !- Zone Heating Sizing Factor
  ,                                       !- Zone Cooling Sizing Factor
  DesignDay,                              !- Cooling Design Air Flow Method
  ,                                       !- Cooling Design Air Flow Rate {m3/s}
  ,                                       !- Cooling Minimum Air Flow per Zone Floor Area {m3/s-m2}
  ,                                       !- Cooling Minimum Air Flow {m3/s}
  ,                                       !- Cooling Minimum Air Flow Fraction
  DesignDay,                              !- Heating Design Air Flow Method
  ,                                       !- Heating Design Air Flow Rate {m3/s}
  ,                                       !- Heating Maximum Air Flow per Zone Floor Area {m3/s-m2}
  ,                                       !- Heating Maximum Air Flow {m3/s}
  ,                                       !- Heating Maximum Air Flow Fraction
  No,                                     !- Account for Dedicated Outdoor Air System
  NeutralSupplyAir,                       !- Dedicated Outdoor Air System Control Strategy
  autosize,                               !- Dedicated Outdoor Air Low Setpoint Temperature for Design {C}
  autosize,                               !- Dedicated Outdoor Air High Setpoint Temperature for Design {C}
  Sensible Load Only No Latent Load,      !- Zone Load Sizing Method
  HumidityRatioDifference,                !- Zone Latent Cooling Design Supply Air Humidity Ratio Input Method
  ,                                       !- Zone Dehumidification Design Supply Air Humidity Ratio {kgWater/kgDryAir}
  0.005,                                  !- Zone Cooling Design Supply Air Humidity Ratio Difference {kgWater/kgDryAir}
  HumidityRatioDifference,                !- Zone Latent Heating Design Supply Air Humidity Ratio Input Method
  ,                                       !- Zone Humidification Design Supply Air Humidity Ratio {kgWater/kgDryAir}
  0.005,                                  !- Zone Humidification Design Supply Air Humidity Ratio Difference {kgWater/kgDryAir}
  ,                                       !- Zone Humidistat Dehumidification Set Point Schedule Name
  ,                                       !- Zone Humidistat Humidification Set Point Schedule Name
  ,                                       !- Design Zone Air Distribution Effectiveness in Cooling Mode
  ,                                       !- Design Zone Air Distribution Effectiveness in Heating Mode
  ,                                       !- Design Zone Secondary Recirculation Fraction {dimensionless}
  ,                                       !- Design Minimum Zone Ventilation Efficiency {dimensionless}
  Coincident;                             !- Sizing Option

OS:ZoneHVAC:EquipmentList,
  {0d609567-dbb1-41bb-9af7-83eccbe810f8}, !- Handle
  Zone HVAC Equipment List 1,             !- Name
  {306beb31-948d-4196-8a7b-5ceacd0bb165}, !- Thermal Zone
  ,                                       !- Load Distribution Scheme
  {8c3e2514-5717-4164-bcb6-982ef0b02e90}, !- Zone Equipment 1
  1,                                      !- Zone Equipment Cooling Sequence 1
  1,                                      !- Zone Equipment Heating or No-Load Sequence 1
  {6beeb5a7-213e-4dc2-9f86-18fd428e9dbe}, !- Zone Equipment Sequential Cooling Fraction Schedule Name 1
  {a1fe85b5-f654-4b3b-85f2-339f44baacbe}; !- Zone Equipment Sequential Heating Fraction Schedule Name 1

OS:AdditionalProperties,
  {4ac76ef4-5abe-40b5-934e-1bad9f67d7fa}, !- Handle
  {306beb31-948d-4196-8a7b-5ceacd0bb165}, !- Object Name
  ObjectType,                             !- Feature Name 1
  String,                                 !- Feature Data Type 1
  conditioned space;                      !- Feature Value 1

OS:Space,
  {0d1d4b97-9287-48e5-b667-880cd76b7bdc}, !- Handle
  conditioned space 1,                    !- Name
  ,                                       !- Space Type Name
  ,                                       !- Default Construction Set Name
  ,                                       !- Default Schedule Set Name
  ,                                       !- Direction of Relative North {deg}
  ,                                       !- X Origin {m}
  ,                                       !- Y Origin {m}
  ,                                       !- Z Origin {m}
  ,                                       !- Building Story Name
  {306beb31-948d-4196-8a7b-5ceacd0bb165}, !- Thermal Zone Name
  ,                                       !- Part of Total Floor Area
  ,                                       !- Design Specification Outdoor Air Object Name
  ,                                       !- Building Unit Name
  692.06373070848;                        !- Volume {m3}

OS:Schedule:Ruleset,
  {e53347a0-8e95-480e-9690-a405148c046b}, !- Handle
  heating setpoint,                       !- Name
  {ca6fe0cd-1695-49f9-bfc2-1682e5e9ee5e}, !- Schedule Type Limits Name
  {a79c4700-42ab-4ed5-9508-4fda96ce39ef}; !- Default Day Schedule Name

OS:Schedule:Day,
  {a79c4700-42ab-4ed5-9508-4fda96ce39ef}, !- Handle
  heating setpoint default day,           !- Name
  {ca6fe0cd-1695-49f9-bfc2-1682e5e9ee5e}, !- Schedule Type Limits Name
  ,                                       !- Interpolate to Timestep
  24,                                     !- Hour 1
  0,                                      !- Minute 1
  0;                                      !- Value Until Time 1

OS:Schedule:Rule,
  {4cf4837d-9f20-4255-879f-1c9ed96d2025}, !- Handle
  heating setpoint allday rule,           !- Name
  {e53347a0-8e95-480e-9690-a405148c046b}, !- Schedule Ruleset Name
  0,                                      !- Rule Order
  {102bf97a-fc76-465c-8593-ff108659fd71}, !- Day Schedule Name
  Yes,                                    !- Apply Sunday
  Yes,                                    !- Apply Monday
  Yes,                                    !- Apply Tuesday
  Yes,                                    !- Apply Wednesday
  Yes,                                    !- Apply Thursday
  Yes,                                    !- Apply Friday
  Yes,                                    !- Apply Saturday
  DateRange,                              !- Date Specification Type
  1,                                      !- Start Month
  1,                                      !- Start Day
  12,                                     !- End Month
  31;                                     !- End Day

OS:Schedule:Day,
  {102bf97a-fc76-465c-8593-ff108659fd71}, !- Handle
  heating setpoint day,                   !- Name
  {ca6fe0cd-1695-49f9-bfc2-1682e5e9ee5e}, !- Schedule Type Limits Name
  ,                                       !- Interpolate to Timestep
  24,                                     !- Hour 1
  0,                                      !- Minute 1
  20;                                     !- Value Until Time 1

OS:Schedule:Ruleset,
  {84bd255d-f378-45f0-b438-cab17d29bd6f}, !- Handle
  cooling setpoint,                       !- Name
  {ca6fe0cd-1695-49f9-bfc2-1682e5e9ee5e}, !- Schedule Type Limits Name
  {abfadc61-cc82-420e-8fb7-99ae14bc2cb6}; !- Default Day Schedule Name

OS:Schedule:Day,
  {abfadc61-cc82-420e-8fb7-99ae14bc2cb6}, !- Handle
  cooling setpoint default day,           !- Name
  {ca6fe0cd-1695-49f9-bfc2-1682e5e9ee5e}, !- Schedule Type Limits Name
  ,                                       !- Interpolate to Timestep
  24,                                     !- Hour 1
  0,                                      !- Minute 1
  0;                                      !- Value Until Time 1

OS:Schedule:Rule,
  {a7b3422f-1c5e-4fd7-8bdc-b29961f988bd}, !- Handle
  cooling setpoint allday rule,           !- Name
  {84bd255d-f378-45f0-b438-cab17d29bd6f}, !- Schedule Ruleset Name
  0,                                      !- Rule Order
  {066b4ada-ea48-43ac-b5f9-c04a1e69c1ee}, !- Day Schedule Name
  Yes,                                    !- Apply Sunday
  Yes,                                    !- Apply Monday
  Yes,                                    !- Apply Tuesday
  Yes,                                    !- Apply Wednesday
  Yes,                                    !- Apply Thursday
  Yes,                                    !- Apply Friday
  Yes,                                    !- Apply Saturday
  DateRange,                              !- Date Specification Type
  1,                                      !- Start Month
  1,                                      !- Start Day
  12,                                     !- End Month
  31;                                     !- End Day

OS:Schedule:Day,
  {066b4ada-ea48-43ac-b5f9-c04a1e69c1ee}, !- Handle
  cooling setpoint day,                   !- Name
  {ca6fe0cd-1695-49f9-bfc2-1682e5e9ee5e}, !- Schedule Type Limits Name
  ,                                       !- Interpolate to Timestep
  24,                                     !- Hour 1
  0,                                      !- Minute 1
  25.5555555555556;                       !- Value Until Time 1

OS:ThermostatSetpoint:DualSetpoint,
  {230e745d-e42d-4e3f-8287-28c157958ef4}, !- Handle
  conditioned space temperature setpoint, !- Name
  {e53347a0-8e95-480e-9690-a405148c046b}, !- Heating Setpoint Temperature Schedule Name
  {84bd255d-f378-45f0-b438-cab17d29bd6f}, !- Cooling Setpoint Temperature Schedule Name
  0;                                      !- Temperature Difference Between Cutout And Setpoint {deltaC}

OS:ScheduleTypeLimits,
  {ca6fe0cd-1695-49f9-bfc2-1682e5e9ee5e}, !- Handle
  Temperature,                            !- Name
  ,                                       !- Lower Limit Value
  ,                                       !- Upper Limit Value
  Continuous,                             !- Numeric Type
  Temperature;                            !- Unit Type

OS:Surface,
  {3bde94f3-3f7a-4271-ad37-c1b12c554bce}, !- Handle
  Roof1,                                  !- Name
  RoofCeiling,                            !- Surface Type
  {bbb0e41f-f33f-466a-97b8-1a65d9bc176f}, !- Construction Name
  {133922c5-34ad-44c5-9209-c18c2db53259}, !- Space Name
  Outdoors,                               !- Outside Boundary Condition
  ,                                       !- Outside Boundary Condition Object
  SunExposed,                             !- Sun Exposure
  WindExposed,                            !- Wind Exposure
  ,                                       !- View Factor to Ground
  ,                                       !- Number of Vertices
  -26.9347048849634, 58.0557891618865, 2.4384, !- X,Y,Z Vertex 1 {m}
  -26.9347048849634, 46.7895631136661, 8.0715130241102, !- X,Y,Z Vertex 2 {m}
  -14.3386812381136, 46.7895631136661, 8.0715130241102, !- X,Y,Z Vertex 3 {m}
  -14.3386812381136, 58.0557891618865, 2.4384; !- X,Y,Z Vertex 4 {m}

OS:AdditionalProperties,
  {f3373fbb-47fa-4a8a-b50e-fbfb240417ea}, !- Handle
  {3bde94f3-3f7a-4271-ad37-c1b12c554bce}, !- Object Name
  Length,                                 !- Feature Name 1
  Double,                                 !- Feature Data Type 1
  41.325536899113608,                     !- Feature Value 1
  Width,                                  !- Feature Name 2
  Double,                                 !- Feature Data Type 2
  41.325536899113601,                     !- Feature Value 2
  Azimuth,                                !- Feature Name 3
  Integer,                                !- Feature Data Type 3
  0,                                      !- Feature Value 3
  Tilt,                                   !- Feature Name 4
  Double,                                 !- Feature Data Type 4
  0.5,                                    !- Feature Value 4
  SurfaceType,                            !- Feature Name 5
  String,                                 !- Feature Data Type 5
  Roof;                                   !- Feature Value 5

OS:ThermalZone,
  {0ed3d9a1-3a44-4a24-910e-af56bd4e2a1e}, !- Handle
  attic - vented,                         !- Name
  1,                                      !- Multiplier
  ,                                       !- Ceiling Height {m}
  356.389957095237,                       !- Volume {m3}
  ,                                       !- Floor Area {m2}
  ,                                       !- Zone Inside Convection Algorithm
  ,                                       !- Zone Outside Convection Algorithm
  ,                                       !- Zone Conditioning Equipment List Name
  {84b0f5d2-1d55-42d2-933a-4a6d57c5653e}, !- Zone Air Inlet Port List
  {05544d3d-0524-4c8b-a152-0ba4b3037ff6}, !- Zone Air Exhaust Port List
  {f3dfc29c-f811-45b4-b55d-1cc1ce9da144}, !- Zone Air Node Name
  {bf37f82a-76e2-4fb5-a3ee-a25f73a73288}, !- Zone Return Air Port List
  ,                                       !- Primary Daylighting Control Name
  ,                                       !- Fraction of Zone Controlled by Primary Daylighting Control
  ,                                       !- Secondary Daylighting Control Name
  ,                                       !- Fraction of Zone Controlled by Secondary Daylighting Control
  ,                                       !- Illuminance Map Name
  ,                                       !- Group Rendering Name
  ,                                       !- Thermostat Name
  No;                                     !- Use Ideal Air Loads

OS:Node,
  {8184a17a-f316-46cb-878d-c17162baab9f}, !- Handle
  Node 2,                                 !- Name
  {f3dfc29c-f811-45b4-b55d-1cc1ce9da144}, !- Inlet Port
  ;                                       !- Outlet Port

OS:Connection,
  {f3dfc29c-f811-45b4-b55d-1cc1ce9da144}, !- Handle
  {0ed3d9a1-3a44-4a24-910e-af56bd4e2a1e}, !- Source Object
  11,                                     !- Outlet Port
  {8184a17a-f316-46cb-878d-c17162baab9f}, !- Target Object
  2;                                      !- Inlet Port

OS:PortList,
  {84b0f5d2-1d55-42d2-933a-4a6d57c5653e}, !- Handle
  {0ed3d9a1-3a44-4a24-910e-af56bd4e2a1e}; !- HVAC Component

OS:PortList,
  {05544d3d-0524-4c8b-a152-0ba4b3037ff6}, !- Handle
  {0ed3d9a1-3a44-4a24-910e-af56bd4e2a1e}; !- HVAC Component

OS:PortList,
  {bf37f82a-76e2-4fb5-a3ee-a25f73a73288}, !- Handle
  {0ed3d9a1-3a44-4a24-910e-af56bd4e2a1e}; !- HVAC Component

OS:Sizing:Zone,
  {c340f854-e340-4808-83a1-c2ce133dc281}, !- Handle
  {0ed3d9a1-3a44-4a24-910e-af56bd4e2a1e}, !- Zone or ZoneList Name
  SupplyAirTemperature,                   !- Zone Cooling Design Supply Air Temperature Input Method
  14,                                     !- Zone Cooling Design Supply Air Temperature {C}
  11.11,                                  !- Zone Cooling Design Supply Air Temperature Difference {deltaC}
  SupplyAirTemperature,                   !- Zone Heating Design Supply Air Temperature Input Method
  40,                                     !- Zone Heating Design Supply Air Temperature {C}
  11.11,                                  !- Zone Heating Design Supply Air Temperature Difference {deltaC}
  0.0085,                                 !- Zone Cooling Design Supply Air Humidity Ratio {kg-H2O/kg-air}
  0.008,                                  !- Zone Heating Design Supply Air Humidity Ratio {kg-H2O/kg-air}
  ,                                       !- Zone Heating Sizing Factor
  ,                                       !- Zone Cooling Sizing Factor
  DesignDay,                              !- Cooling Design Air Flow Method
  ,                                       !- Cooling Design Air Flow Rate {m3/s}
  ,                                       !- Cooling Minimum Air Flow per Zone Floor Area {m3/s-m2}
  ,                                       !- Cooling Minimum Air Flow {m3/s}
  ,                                       !- Cooling Minimum Air Flow Fraction
  DesignDay,                              !- Heating Design Air Flow Method
  ,                                       !- Heating Design Air Flow Rate {m3/s}
  ,                                       !- Heating Maximum Air Flow per Zone Floor Area {m3/s-m2}
  ,                                       !- Heating Maximum Air Flow {m3/s}
  ,                                       !- Heating Maximum Air Flow Fraction
  No,                                     !- Account for Dedicated Outdoor Air System
  NeutralSupplyAir,                       !- Dedicated Outdoor Air System Control Strategy
  autosize,                               !- Dedicated Outdoor Air Low Setpoint Temperature for Design {C}
  autosize,                               !- Dedicated Outdoor Air High Setpoint Temperature for Design {C}
  Sensible Load Only No Latent Load,      !- Zone Load Sizing Method
  HumidityRatioDifference,                !- Zone Latent Cooling Design Supply Air Humidity Ratio Input Method
  ,                                       !- Zone Dehumidification Design Supply Air Humidity Ratio {kgWater/kgDryAir}
  0.005,                                  !- Zone Cooling Design Supply Air Humidity Ratio Difference {kgWater/kgDryAir}
  HumidityRatioDifference,                !- Zone Latent Heating Design Supply Air Humidity Ratio Input Method
  ,                                       !- Zone Humidification Design Supply Air Humidity Ratio {kgWater/kgDryAir}
  0.005,                                  !- Zone Humidification Design Supply Air Humidity Ratio Difference {kgWater/kgDryAir}
  ,                                       !- Zone Humidistat Dehumidification Set Point Schedule Name
  ,                                       !- Zone Humidistat Humidification Set Point Schedule Name
  ,                                       !- Design Zone Air Distribution Effectiveness in Cooling Mode
  ,                                       !- Design Zone Air Distribution Effectiveness in Heating Mode
  ,                                       !- Design Zone Secondary Recirculation Fraction {dimensionless}
  ,                                       !- Design Minimum Zone Ventilation Efficiency {dimensionless}
  Coincident;                             !- Sizing Option

OS:ZoneHVAC:EquipmentList,
  {ec7ac422-d875-49e0-a3c4-9ad012c2e7ee}, !- Handle
  Zone HVAC Equipment List 2,             !- Name
  {0ed3d9a1-3a44-4a24-910e-af56bd4e2a1e}; !- Thermal Zone

OS:AdditionalProperties,
  {258d45ef-a79f-479f-a783-e0c2440aad88}, !- Handle
  {0ed3d9a1-3a44-4a24-910e-af56bd4e2a1e}, !- Object Name
  ObjectType,                             !- Feature Name 1
  String,                                 !- Feature Data Type 1
  attic - vented;                         !- Feature Value 1

OS:Space,
  {133922c5-34ad-44c5-9209-c18c2db53259}, !- Handle
  attic - vented 1,                       !- Name
  ,                                       !- Space Type Name
  ,                                       !- Default Construction Set Name
  ,                                       !- Default Schedule Set Name
  ,                                       !- Direction of Relative North {deg}
  ,                                       !- X Origin {m}
  ,                                       !- Y Origin {m}
  ,                                       !- Z Origin {m}
  ,                                       !- Building Story Name
  {0ed3d9a1-3a44-4a24-910e-af56bd4e2a1e}, !- Thermal Zone Name
  ,                                       !- Part of Total Floor Area
  ,                                       !- Design Specification Outdoor Air Object Name
  ,                                       !- Building Unit Name
  356.389957095237;                       !- Volume {m3}

OS:Material,
  {9a749720-ae50-44b6-8ad1-7effde3e95b1}, !- Handle
  asphalt or fiberglass shingles,         !- Name
  Rough,                                  !- Roughness
  0.00635,                                !- Thickness {m}
  0.162714,                               !- Conductivity {W/m-K}
  1121.4,                                 !- Density {kg/m3}
  1465.45,                                !- Specific Heat {J/kg-K}
  0.9,                                    !- Thermal Absorptance
  0.85,                                   !- Solar Absorptance
  0.85;                                   !- Visible Absorptance

OS:Material,
  {bf902e9d-0529-4aa5-b6b4-6fecbaa7624b}, !- Handle