
OS:Version,
  {a4e5c3f9-1ad6-4f9e-9f18-ebd234f93b76}, !- Handle
  3.10.0;                                 !- Version Identifier

OS:SimulationControl,
  {f0391573-f05b-4025-ba69-34e099702d6d}, !- Handle
  ,                                       !- Do Zone Sizing Calculation
  ,                                       !- Do System Sizing Calculation
  ,                                       !- Do Plant Sizing Calculation
  No;                                     !- Run Simulation for Sizing Periods

OS:Timestep,
  {1209fed4-03d2-4084-bcb2-dccb1ad87da4}, !- Handle
  1;                                      !- Number of Timesteps per Hour

OS:ShadowCalculation,
  {c1886910-ce55-4820-a8d4-0f909b769b8d}, !- Handle
  PolygonClipping,                        !- Shading Calculation Method
  ,                                       !- Shading Calculation Update Frequency Method
  20,                                     !- Shading Calculation Update Frequency
  200,                                    !- Maximum Figures in Shadow Overlap Calculations
  ,                                       !- Polygon Clipping Algorithm
  512,                                    !- Pixel Counting Resolution
  ,                                       !- Sky Diffuse Modeling Algorithm
  No,                                     !- Output External Shading Calculation Results
  No,                                     !- Disable Self-Shading Within Shading Zone Groups
  No;                                     !- Disable Self-Shading From Shading Zone Groups to Other Zones

OS:SurfaceConvectionAlgorithm:Outside,
  {ff825f1a-63e9-4d13-b997-8a96fbb6576b}, !- Handle
  DOE-2;                                  !- Algorithm

OS:SurfaceConvectionAlgorithm:Inside,
  {b06d9e3f-e885-4577-bc5c-b42a94ffcb9a}, !- Handle
  TARP;                                   !- Algorithm

OS:ZoneCapacitanceMultiplier:ResearchSpecial,
  {baebb2a8-9a0c-4c53-9468-bdb4579712cf}, !- Handle
  7,                                      !- Temperature Capacity Multiplier
  15,                                     !- Humidity Capacity Multiplier
  ;                                       !- Carbon Dioxide Capacity Multiplier

OS:ConvergenceLimits,
  {af317364-4d49-40eb-817b-119f3417f492}, !- Handle
  0;                                      !- Minimum System Timestep {minutes}

OS:RunPeriod,
  {bcfb8da5-c5db-4662-bdb3-4be8e0a36303}, !- Handle
  Run Period 1,                           !- Name
  1,                                      !- Begin Month
  1,                                      !- Begin Day of Month
  12,                                     !- End Month
  31,                                     !- End Day of Month
  ,                                       !- Use Weather File Holidays and Special Days
  ,                                       !- Use Weather File Daylight Saving Period
  ,                                       !- Apply Weekend Holiday Rule
  ,                                       !- Use Weather File Rain Indicators
  ,                                       !- Use Weather File Snow Indicators
  ;                                       !- Number of Times Runperiod to be Repeated

OS:PerformancePrecisionTradeoffs,
  {abe03354-9e75-458c-ad56-8c62752ff6b3}, !- Handle
  ,                                       !- Use Coil Direct Solutions
  CarrollMRT;                             !- Zone Radiant Exchange Algorithm

OS:WeatherFile,
  {cb9e9408-1d75-4120-ab52-1b4981965161}, !- Handle
  Buffalo Niagara Intl Ap,                !- City
  NY,                                     !- State Province Region
  USA,                                    !- Country
  TMY3,                                   !- Data Source
  725280,                                 !- WMO Number
  42.93,                                  !- Latitude {deg}
  -78.73,                                 !- Longitude {deg}
  -5,                                     !- Time Zone {hr}
  215,                                    !- Elevation {m}
  /Users/nmoore/github/urbanopt-example-geojson-project/example_project/weather/USA_NY_Buffalo-Greater.Buffalo.Intl.AP.725280_TMY3.epw, !- Url
  6B50E0FF,                               !- Checksum
  ,                                       !- Start Date Actual Year
  Sunday;                                 !- Start Day of Week

OS:YearDescription,
  {5dc54948-e7fc-4339-87b3-8c89527957e2}, !- Handle
  2007,                                   !- Calendar Year
  ,                                       !- Day of Week for Start Day
  ;                                       !- Is Leap Year

OS:Site,
  {74361a6d-0542-4bd6-9abe-9e031a42a89b}, !- Handle
  Buffalo Niagara Intl Ap_NY,             !- Name
  42.93,                                  !- Latitude {deg}
  -78.73,                                 !- Longitude {deg}
  -5,                                     !- Time Zone {hr}
  215,                                    !- Elevation {m}
  Suburbs,                                !- Terrain
  Yes;                                    !- Keep Site Location Information

OS:RunPeriodControl:DaylightSavingTime,
  {f4abe692-7d69-4910-a4ba-b655493fa1cf}, !- Handle
  Mar 12,                                 !- Start Date
  Nov 5;                                  !- End Date

OS:Site:GroundTemperature:Shallow,
  {20c92152-1e7f-44d4-bd67-b881418be6e0}, !- Handle
  4.30207395723828,                       !- January Surface Ground Temperature {C}
  2.29327249652502,                       !- February Surface Ground Temperature {C}
  2.13240047156047,                       !- March Surface Ground Temperature {C}
  3.08567940719286,                       !- April Surface Ground Temperature {C}
  6.91256312497526,                       !- May Surface Ground Temperature {C}
  10.7216195949507,                       !- June Surface Ground Temperature {C}
  14.0238679822574,                       !- July Surface Ground Temperature {C}
  16.1157611184724,                       !- August Surface Ground Temperature {C}
  16.2934789303462,                       !- September Surface Ground Temperature {C}
  14.5920754632847,                       !- October Surface Ground Temperature {C}
  11.374036348653,                        !- November Surface Ground Temperature {C}
  7.68182621661674;                       !- December Surface Ground Temperature {C}

OS:ThermalZone,
  {ad228811-05d0-4e78-a240-665c0ca487a7}, !- Handle
  conditioned space,                      !- Name
  1,                                      !- Multiplier
  ,                                       !- Ceiling Height {m}
  692.06373070848,                        !- Volume {m3}
  ,                                       !- Floor Area {m2}
  ,                                       !- Zone Inside Convection Algorithm
  ,                                       !- Zone Outside Convection Algorithm
  ,                                       !- Zone Conditioning Equipment List Name
  {85ada17d-e6f3-4e7b-8320-3c87c44fe577}, !- Zone Air Inlet Port List
  {3ef266f8-087d-410a-b25a-aa544eec13d9}, !- Zone Air Exhaust Port List
  {be92c57d-2363-420b-865d-5fc2f6d1d5d2}, !- Zone Air Node Name
  {e7fb2d78-f918-44cb-8541-2f2c102824a4}, !- Zone Return Air Port List
  ,                                       !- Primary Daylighting Control Name
  ,                                       !- Fraction of Zone Controlled by Primary Daylighting Control
  ,                                       !- Secondary Daylighting Control Name
  ,                                       !- Fraction of Zone Controlled by Secondary Daylighting Control
  ,                                       !- Illuminance Map Name
  ,                                       !- Group Rendering Name
  {1e907cbc-9864-4f9a-b5b6-34e503439ef4}, !- Thermostat Name
  No;                                     !- Use Ideal Air Loads

OS:Node,
  {39540cde-9649-4cce-a7b9-3637789f1e9c}, !- Handle
  Node 1,                                 !- Name
  {be92c57d-2363-420b-865d-5fc2f6d1d5d2}, !- Inlet Port
  ;                                       !- Outlet Port

OS:Connection,
  {be92c57d-2363-420b-865d-5fc2f6d1d5d2}, !- Handle
  {ad228811-05d0-4e78-a240-665c0ca487a7}, !- Source Object
  11,                                     !- Outlet Port
  {39540cde-9649-4cce-a7b9-3637789f1e9c}, !- Target Object
  2;                                      !- Inlet Port

OS:PortList,
  {85ada17d-e6f3-4e7b-8320-3c87c44fe577}, !- Handle
  {ad228811-05d0-4e78-a240-665c0ca487a7}; !- HVAC Component

OS:PortList,
  {3ef266f8-087d-410a-b25a-aa544eec13d9}, !- Handle
  {ad228811-05d0-4e78-a240-665c0ca487a7}; !- HVAC Component

OS:PortList,
  {e7fb2d78-f918-44cb-8541-2f2c102824a4}, !- Handle
  {ad228811-05d0-4e78-a240-665c0ca487a7}; !- HVAC Component

OS:Sizing:Zone,
  {0bd17a95-937d-412e-bca5-83cb70b5821f}, !- Handle
  {ad228811-05d0-4e78-a240-665c0ca487a7}, !- Zone or ZoneList Name
  SupplyAirTemperature,                   !- Zone Cooling Design Supply Air Temperature Input Method
  14,                                     !- Zone Cooling Design Supply Air Temperature {C}
  11.11,                                  !- Zone Cooling Design Supply Air Temperature Difference {deltaC}
  SupplyAirTemperature,                   !- Zone Heating Design Supply Air Temperature Input Method
  40,                                     !- Zone Heating Design Supply Air Temperature {C}
  11.11,                                  !- Zone Heating Design Supply Air Temperature Difference {deltaC}
  0.0085,                                 !- Zone Cooling Design Supply Air Humidity Ratio {kg-H2O/kg-air}
  0.008,                                  !- Zone Heating Design Supply Air Humidity Ratio {kg-H2O/kg-air}
  ,                                       !- Zone Heating Sizing Factor
  ,                                       !- Zone Cooling Sizing Factor
  DesignDay,                              !- Cooling Design Air Flow Method
  ,                                       !- Cooling Design Air Flow Rate {m3/s}
  ,                                       !- Cooling Minimum Air Flow per Zone Floor Area {m3/s-m2}
  ,                                       !- Cooling Minimum Air Flow {m3/s}
  ,                                       !- Cooling Minimum Air Flow Fraction
  DesignDay,                              !- Heating Design Air Flow Method
  ,                                       !- Heating Design Air Flow Rate {m3/s}
  ,                                       !- Heating Maximum Air Flow per Zone Floor Area {m3/s-m2}
  ,                                       !- Heating Maximum Air Flow {m3/s}
  ,                                       !- Heating Maximum Air Flow Fraction
  No,                                     !- Account for Dedicated Outdoor Air System
  NeutralSupplyAir,                       !- Dedicated Outdoor Air System Control Strategy
  autosize,                               !- Dedicated Outdoor Air Low Setpoint Temperature for Design {C}
  autosize,                               !- Dedicated Outdoor Air High Setpoint Temperature for Design {C}
  Sensible Load Only No Latent Load,      !- Zone Load Sizing Method
  HumidityRatioDifference,                !- Zone Latent Cooling Design Supply Air Humidity Ratio Input Method
  ,                                       !- Zone Dehumidification Design Supply Air Humidity Ratio {kgWater/kgDryAir}
  0.005,                                  !- Zone Cooling Design Supply Air Humidity Ratio Difference {kgWater/kgDryAir}
  HumidityRatioDifference,                !- Zone Latent Heating Design Supply Air Humidity Ratio Input Method
  ,                                       !- Zone Humidification Design Supply Air Humidity Ratio {kgWater/kgDryAir}
  0.005,                                  !- Zone Humidification Design Supply Air Humidity Ratio Difference {kgWater/kgDryAir}
  ,                                       !- Zone Humidistat Dehumidification Set Point Schedule Name
  ,                                       !- Zone Humidistat Humidification Set Point Schedule Name
  ,                                       !- Design Zone Air Distribution Effectiveness in Cooling Mode
  ,                                       !- Design Zone Air Distribution Effectiveness in Heating Mode
  ,                                       !- Design Zone Secondary Recirculation Fraction {dimensionless}
  ,                                       !- Design Minimum Zone Ventilation Efficiency {dimensionless}
  Coincident;                             !- Sizing Option

OS:ZoneHVAC:EquipmentList,
  {88aaa2d6-60fa-4b6c-9f6c-7fb384caec8b}, !- Handle
  Zone HVAC Equipment List 1,             !- Name
  {ad228811-05d0-4e78-a240-665c0ca487a7}, !- Thermal Zone
  ,                                       !- Load Distribution Scheme
  {809a2eec-aa84-437b-8ae9-26b70c042851}, !- Zone Equipment 1
  1,                                      !- Zone Equipment Cooling Sequence 1
  1,                                      !- Zone Equipment Heating or No-Load Sequence 1
  {c3a9bbae-9058-417f-ae2b-e7516f871f98}, !- Zone Equipment Sequential Cooling Fraction Schedule Name 1
  {df1a7c2b-4d23-42b6-afde-f377a78a319a}; !- Zone Equipment Sequential Heating Fraction Schedule Name 1

OS:AdditionalProperties,
  {fa045334-51fe-4074-b657-2639e1973734}, !- Handle
  {ad228811-05d0-4e78-a240-665c0ca487a7}, !- Object Name
  ObjectType,                             !- Feature Name 1
  String,                                 !- Feature Data Type 1
  conditioned space;                      !- Feature Value 1

OS:Space,
  {15b7cb0a-e6af-43d4-bf93-e90d0040e03d}, !- Handle
  conditioned space 1,                    !- Name
  ,                                       !- Space Type Name
  ,                                       !- Default Construction Set Name
  ,                                       !- Default Schedule Set Name
  ,                                       !- Direction of Relative North {deg}
  ,                                       !- X Origin {m}
  ,                                       !- Y Origin {m}
  ,                                       !- Z Origin {m}
  ,                                       !- Building Story Name
  {ad228811-05d0-4e78-a240-665c0ca487a7}, !- Thermal Zone Name
  ,                                       !- Part of Total Floor Area
  ,                                       !- Design Specification Outdoor Air Object Name
  ,                                       !- Building Unit Name
  692.06373070848;                        !- Volume {m3}

OS:Schedule:Ruleset,
  {5e665bb0-da06-4b39-99d6-eb7b12d1a7ea}, !- Handle
  heating setpoint,                       !- Name
  {a82aba83-ca80-4f3c-a1bf-679a7d152cbe}, !- Schedule Type Limits Name
  {613abee6-2352-4568-86ba-2db7363c94c1}; !- Default Day Schedule Name

OS:Schedule:Day,
  {613abee6-2352-4568-86ba-2db7363c94c1}, !- Handle
  heating setpoint default day,           !- Name
  {a82aba83-ca80-4f3c-a1bf-679a7d152cbe}, !- Schedule Type Limits Name
  ,                                       !- Interpolate to Timestep
  24,                                     !- Hour 1
  0,                                      !- Minute 1
  0;                                      !- Value Until Time 1

OS:Schedule:Rule,
  {b71996a8-9c10-4c9c-8020-3bbb96a59b82}, !- Handle
  heating setpoint allday rule,           !- Name
  {5e665bb0-da06-4b39-99d6-eb7b12d1a7ea}, !- Schedule Ruleset Name
  0,                                      !- Rule Order
  {286b93a0-ac66-4489-b211-48f5df824c5f}, !- Day Schedule Name
  Yes,                                    !- Apply Sunday
  Yes,                                    !- Apply Monday
  Yes,                                    !- Apply Tuesday
  Yes,                                    !- Apply Wednesday
  Yes,                                    !- Apply Thursday
  Yes,                                    !- Apply Friday
  Yes,                                    !- Apply Saturday
  DateRange,                              !- Date Specification Type
  1,                                      !- Start Month
  1,                                      !- Start Day
  12,                                     !- End Month
  31;                                     !- End Day

OS:Schedule:Day,
  {286b93a0-ac66-4489-b211-48f5df824c5f}, !- Handle
  heating setpoint day,                   !- Name
  {a82aba83-ca80-4f3c-a1bf-679a7d152cbe}, !- Schedule Type Limits Name
  ,                                       !- Interpolate to Timestep
  24,                                     !- Hour 1
  0,                                      !- Minute 1
  20;                                     !- Value Until Time 1

OS:Schedule:Ruleset,
  {292224bf-f043-49ee-b075-adc3cb25f111}, !- Handle
  cooling setpoint,                       !- Name
  {a82aba83-ca80-4f3c-a1bf-679a7d152cbe}, !- Schedule Type Limits Name
  {4f80a47e-e6fe-428e-900f-1f459e2852f6}; !- Default Day Schedule Name

OS:Schedule:Day,
  {4f80a47e-e6fe-428e-900f-1f459e2852f6}, !- Handle
  cooling setpoint default day,           !- Name
  {a82aba83-ca80-4f3c-a1bf-679a7d152cbe}, !- Schedule Type Limits Name
  ,                                       !- Interpolate to Timestep
  24,                                     !- Hour 1
  0,                                      !- Minute 1
  0;                                      !- Value Until Time 1

OS:Schedule:Rule,
  {4ad67d7a-f8b9-4468-a9d9-a38f166b323d}, !- Handle
  cooling setpoint allday rule,           !- Name
  {292224bf-f043-49ee-b075-adc3cb25f111}, !- Schedule Ruleset Name
  0,                                      !- Rule Order
  {3fdeebfa-abee-41be-acf7-a5207b1f22d4}, !- Day Schedule Name
  Yes,                                    !- Apply Sunday
  Yes,                                    !- Apply Monday
  Yes,                                    !- Apply Tuesday
  Yes,                                    !- Apply Wednesday
  Yes,                                    !- Apply Thursday
  Yes,                                    !- Apply Friday
  Yes,                                    !- Apply Saturday
  DateRange,                              !- Date Specification Type
  1,                                      !- Start Month
  1,                                      !- Start Day
  12,                                     !- End Month
  31;                                     !- End Day

OS:Schedule:Day,
  {3fdeebfa-abee-41be-acf7-a5207b1f22d4}, !- Handle
  cooling setpoint day,                   !- Name
  {a82aba83-ca80-4f3c-a1bf-679a7d152cbe}, !- Schedule Type Limits Name
  ,                                       !- Interpolate to Timestep
  24,                                     !- Hour 1
  0,                                      !- Minute 1
  25.5555555555556;                       !- Value Until Time 1

OS:ThermostatSetpoint:DualSetpoint,
  {1e907cbc-9864-4f9a-b5b6-34e503439ef4}, !- Handle
  conditioned space temperature setpoint, !- Name
  {5e665bb0-da06-4b39-99d6-eb7b12d1a7ea}, !- Heating Setpoint Temperature Schedule Name
  {292224bf-f043-49ee-b075-adc3cb25f111}, !- Cooling Setpoint Temperature Schedule Name
  0;                                      !- Temperature Difference Between Cutout And Setpoint {deltaC}

OS:ScheduleTypeLimits,
  {a82aba83-ca80-4f3c-a1bf-679a7d152cbe}, !- Handle
  Temperature,                            !- Name
  ,                                       !- Lower Limit Value
  ,                                       !- Upper Limit Value
  Continuous,                             !- Numeric Type
  Temperature;                            !- Unit Type

OS:Surface,
  {e2ad1155-2b0b-415f-aff7-9ce57b7121da}, !- Handle
  Roof1,                                  !- Name
  RoofCeiling,                            !- Surface Type
  {bbe26f5f-008e-47a5-b956-110dfab7dcc6}, !- Construction Name
  {a1d1d250-e079-42ce-a176-ef2de2ef038d}, !- Space Name
  Outdoors,                               !- Outside Boundary Condition
  ,                                       !- Outside Boundary Condition Object
  SunExposed,                             !- Sun Exposure
  WindExposed,                            !- Wind Exposure
  ,                                       !- View Factor to Ground
  ,                                       !- Number of Vertices
  -26.9347048849634, 58.0557891618865, 2.4384, !- X,Y,Z Vertex 1 {m}
  -26.9347048849634, 46.7895631136661, 8.0715130241102, !- X,Y,Z Vertex 2 {m}
  -14.3386812381136, 46.7895631136661, 8.0715130241102, !- X,Y,Z Vertex 3 {m}
  -14.3386812381136, 58.0557891618865, 2.4384; !- X,Y,Z Vertex 4 {m}

OS:AdditionalProperties,
  {7a1d98c1-8e49-4b50-98fd-42c0387ad516}, !- Handle
  {e2ad1155-2b0b-415f-aff7-9ce57b7121da}, !- Object Name
  Length,                                 !- Feature Name 1
  Double,                                 !- Feature Data Type 1
  41.325536899113608,                     !- Feature Value 1
  Width,                                  !- Feature Name 2
  Double,                                 !- Feature Data Type 2
  41.325536899113601,                     !- Feature Value 2
  Azimuth,                                !- Feature Name 3
  Integer,                                !- Feature Data Type 3
  0,                                      !- Feature Value 3
  Tilt,                                   !- Feature Name 4
  Double,                                 !- Feature Data Type 4
  0.5,                                    !- Feature Value 4
  SurfaceType,                            !- Feature Name 5
  String,                                 !- Feature Data Type 5
  Roof;                                   !- Feature Value 5

OS:ThermalZone,
  {2e674e8a-6b49-460d-b825-b47cd39a1cdf}, !- Handle
  attic - vented,                         !- Name
  1,                                      !- Multiplier
  ,                                       !- Ceiling Height {m}
  356.390921899745,                       !- Volume {m3}
  ,                                       !- Floor Area {m2}
  ,                                       !- Zone Inside Convection Algorithm
  ,                                       !- Zone Outside Convection Algorithm
  ,                                       !- Zone Conditioning Equipment List Name
  {4c86369c-d969-44d6-a5b1-8fd25953655b}, !- Zone Air Inlet Port List
  {781d2d52-d1c3-41d4-af3b-07a1e45465e7}, !- Zone Air Exhaust Port List
  {a6ded5de-0e13-4391-958f-43abd7e4522c}, !- Zone Air Node Name
  {7c6b75d9-2563-4cf4-b223-bea6f3368e55}, !- Zone Return Air Port List
  ,                                       !- Primary Daylighting Control Name
  ,                                       !- Fraction of Zone Controlled by Primary Daylighting Control
  ,                                       !- Secondary Daylighting Control Name
  ,                                       !- Fraction of Zone Controlled by Secondary Daylighting Control
  ,                                       !- Illuminance Map Name
  ,                                       !- Group Rendering Name
  ,                                       !- Thermostat Name
  No;                                     !- Use Ideal Air Loads

OS:Node,
  {ad4c0e36-b3bd-4fb8-b6a5-f358261c130c}, !- Handle
  Node 2,                                 !- Name
  {a6ded5de-0e13-4391-958f-43abd7e4522c}, !- Inlet Port
  ;                                       !- Outlet Port

OS:Connection,
  {a6ded5de-0e13-4391-958f-43abd7e4522c}, !- Handle
  {2e674e8a-6b49-460d-b825-b47cd39a1cdf}, !- Source Object
  11,                                     !- Outlet Port
  {ad4c0e36-b3bd-4fb8-b6a5-f358261c130c}, !- Target Object
  2;                                      !- Inlet Port

OS:PortList,
  {4c86369c-d969-44d6-a5b1-8fd25953655b}, !- Handle
  {2e674e8a-6b49-460d-b825-b47cd39a1cdf}; !- HVAC Component

OS:PortList,
  {781d2d52-d1c3-41d4-af3b-07a1e45465e7}, !- Handle
  {2e674e8a-6b49-460d-b825-b47cd39a1cdf}; !- HVAC Component

OS:PortList,
  {7c6b75d9-2563-4cf4-b223-bea6f3368e55}, !- Handle
  {2e674e8a-6b49-460d-b825-b47cd39a1cdf}; !- HVAC Component

OS:Sizing:Zone,
  {b8203d6a-175d-4c4c-9055-5cbfb2c9f91b}, !- Handle
  {2e674e8a-6b49-460d-b825-b47cd39a1cdf}, !- Zone or ZoneList Name
  SupplyAirTemperature,                   !- Zone Cooling Design Supply Air Temperature Input Method
  14,                                     !- Zone Cooling Design Supply Air Temperature {C}
  11.11,                                  !- Zone Cooling Design Supply Air Temperature Difference {deltaC}
  SupplyAirTemperature,                   !- Zone Heating Design Supply Air Temperature Input Method
  40,                                     !- Zone Heating Design Supply Air Temperature {C}
  11.11,                                  !- Zone Heating Design Supply Air Temperature Difference {deltaC}
  0.0085,                                 !- Zone Cooling Design Supply Air Humidity Ratio {kg-H2O/kg-air}
  0.008,                                  !- Zone Heating Design Supply Air Humidity Ratio {kg-H2O/kg-air}
  ,                                       !- Zone Heating Sizing Factor
  ,                                       !- Zone Cooling Sizing Factor
  DesignDay,                              !- Cooling Design Air Flow Method
  ,                                       !- Cooling Design Air Flow Rate {m3/s}
  ,                                       !- Cooling Minimum Air Flow per Zone Floor Area {m3/s-m2}
  ,                                       !- Cooling Minimum Air Flow {m3/s}
  ,                                       !- Cooling Minimum Air Flow Fraction
  DesignDay,                              !- Heating Design Air Flow Method
  ,                                       !- Heating Design Air Flow Rate {m3/s}
  ,                                       !- Heating Maximum Air Flow per Zone Floor Area {m3/s-m2}
  ,                                       !- Heating Maximum Air Flow {m3/s}
  ,                                       !- Heating Maximum Air Flow Fraction
  No,                                     !- Account for Dedicated Outdoor Air System
  NeutralSupplyAir,                       !- Dedicated Outdoor Air System Control Strategy
  autosize,                               !- Dedicated Outdoor Air Low Setpoint Temperature for Design {C}
  autosize,                               !- Dedicated Outdoor Air High Setpoint Temperature for Design {C}
  Sensible Load Only No Latent Load,      !- Zone Load Sizing Method
  HumidityRatioDifference,                !- Zone Latent Cooling Design Supply Air Humidity Ratio Input Method
  ,                                       !- Zone Dehumidification Design Supply Air Humidity Ratio {kgWater/kgDryAir}
  0.005,                                  !- Zone Cooling Design Supply Air Humidity Ratio Difference {kgWater/kgDryAir}
  HumidityRatioDifference,                !- Zone Latent Heating Design Supply Air Humidity Ratio Input Method
  ,                                       !- Zone Humidification Design Supply Air Humidity Ratio {kgWater/kgDryAir}
  0.005,                                  !- Zone Humidification Design Supply Air Humidity Ratio Difference {kgWater/kgDryAir}
  ,                                       !- Zone Humidistat Dehumidification Set Point Schedule Name
  ,                                       !- Zone Humidistat Humidification Set Point Schedule Name
  ,                                       !- Design Zone Air Distribution Effectiveness in Cooling Mode
  ,                                       !- Design Zone Air Distribution Effectiveness in Heating Mode
  ,                                       !- Design Zone Secondary Recirculation Fraction {dimensionless}
  ,                                       !- Design Minimum Zone Ventilation Efficiency {dimensionless}
  Coincident;                             !- Sizing Option

OS:ZoneHVAC:EquipmentList,
  {95270dcc-5175-4319-b135-ae1a4c4fb0e5}, !- Handle
  Zone HVAC Equipment List 2,             !- Name
  {2e674e8a-6b49-460d-b825-b47cd39a1cdf}; !- Thermal Zone

OS:AdditionalProperties,
  {95bf36fa-524a-4791-adab-0abd4d63aa5d}, !- Handle
  {2e674e8a-6b49-460d-b825-b47cd39a1cdf}, !- Object Name
  ObjectType,                             !- Feature Name 1
  String,                                 !- Feature Data Type 1
  attic - vented;                         !- Feature Value 1

OS:Space,
  {a1d1d250-e079-42ce-a176-ef2de2ef038d}, !- Handle
  attic - vented 1,                       !- Name
  ,                                       !- Space Type Name
  ,                                       !- Default Construction Set Name
  ,                                       !- Default Schedule Set Name
  ,                                       !- Direction of Relative North {deg}
  ,                                       !- X Origin {m}
  ,                                       !- Y Origin {m}
  ,                                       !- Z Origin {m}
  ,                                       !- Building Story Name
  {2e674e8a-6b49-460d-b825-b47cd39a1cdf}, !- Thermal Zone Name
  ,                                       !- Part of Total Floor Area
  ,                                       !- Design Specification Outdoor Air Object Name
  ,                                       !- Building Unit Name
  356.390921899745;                       !- Volume {m3}

OS:Material,
  {fbaf1db6-4038-461d-99a4-349c38b3c835}, !- Handle
  asphalt or fiberglass shingles,         !- Name
  Rough,                                  !- Roughness
  0.00635,                                !- Thickness {m}
  0.162714,                               !- Conductivity {W/m-K}
  1121.4,                                 !- Density {kg/m3}
  1465.45,                                !- Specific Heat {J/kg-K}
  0.9,                                    !- Thermal Absorptance
  0.85,                                   !- Solar Absorptance
  0.85;                                   !- Visible Absorptance

OS:Material,
  {659fd0c9-678a-4a4a-8215-01ee85ad201c}, !- Handle