
OS:Version,
  {8c75d663-558b-4bff-b167-d45f4e01893b}, !- Handle
  3.9.0;                                  !- Version Identifier

OS:SimulationControl,
  {5c1f08bb-aad9-4b5b-a761-e9fb21227b28}, !- Handle
  ,                                       !- Do Zone Sizing Calculation
  ,                                       !- Do System Sizing Calculation
  ,                                       !- Do Plant Sizing Calculation
  No;                                     !- Run Simulation for Sizing Periods

OS:Timestep,
  {0d02dfcd-7e1b-4140-ba88-39815240c14b}, !- Handle
  1;                                      !- Number of Timesteps per Hour

OS:ShadowCalculation,
  {8fe44da7-ba1c-459b-9bbc-18587507cbe7}, !- Handle
  PolygonClipping,                        !- Shading Calculation Method
  ,                                       !- Shading Calculation Update Frequency Method
  20,                                     !- Shading Calculation Update Frequency
  200,                                    !- Maximum Figures in Shadow Overlap Calculations
  ,                                       !- Polygon Clipping Algorithm
  512,                                    !- Pixel Counting Resolution
  ,                                       !- Sky Diffuse Modeling Algorithm
  No,                                     !- Output External Shading Calculation Results
  No,                                     !- Disable Self-Shading Within Shading Zone Groups
  No;                                     !- Disable Self-Shading From Shading Zone Groups to Other Zones

OS:SurfaceConvectionAlgorithm:Outside,
  {0fdf96bf-cf5e-4073-8d29-27c656c8b052}, !- Handle
  DOE-2;                                  !- Algorithm

OS:SurfaceConvectionAlgorithm:Inside,
  {60adfbb7-1c7b-43b7-927b-9c027c8e8a19}, !- Handle
  TARP;                                   !- Algorithm

OS:ZoneCapacitanceMultiplier:ResearchSpecial,
  {bc017877-5586-4c51-8dea-a932dbd404b5}, !- Handle
  7,                                      !- Temperature Capacity Multiplier
  15,                                     !- Humidity Capacity Multiplier
  ;                                       !- Carbon Dioxide Capacity Multiplier

OS:ConvergenceLimits,
  {af90cd0d-e887-4c96-951b-77a193b2b00a}, !- Handle
  0;                                      !- Minimum System Timestep {minutes}

OS:RunPeriod,
  {fef7f3fe-0300-4752-ad68-e5371973c62a}, !- Handle
  Run Period 1,                           !- Name
  1,                                      !- Begin Month
  1,                                      !- Begin Day of Month
  12,                                     !- End Month
  31,                                     !- End Day of Month
  ,                                       !- Use Weather File Holidays and Special Days
  ,                                       !- Use Weather File Daylight Saving Period
  ,                                       !- Apply Weekend Holiday Rule
  ,                                       !- Use Weather File Rain Indicators
  ,                                       !- Use Weather File Snow Indicators
  ;                                       !- Number of Times Runperiod to be Repeated

OS:PerformancePrecisionTradeoffs,
  {918ea13c-a784-4f8d-822d-363670aa7a47}, !- Handle
  ,                                       !- Use Coil Direct Solutions
  CarrollMRT;                             !- Zone Radiant Exchange Algorithm

OS:WeatherFile,
  {84c05d5b-adac-4297-b036-e83b36dd2f02}, !- Handle
  Buffalo Niagara Intl Ap,                !- City
  NY,                                     !- State Province Region
  USA,                                    !- Country
  TMY3,                                   !- Data Source
  725280,                                 !- WMO Number
  42.93,                                  !- Latitude {deg}
  -78.73,                                 !- Longitude {deg}
  -5,                                     !- Time Zone {hr}
  215,                                    !- Elevation {m}
  /Users/nmoore/github/urbanopt-example-geojson-project/example_project/weather/USA_NY_Buffalo-Greater.Buffalo.Intl.AP.725280_TMY3.epw, !- Url
  6B50E0FF,                               !- Checksum
  ,                                       !- Start Date Actual Year
  Sunday;                                 !- Start Day of Week

OS:YearDescription,
  {a91bc5c7-3549-496a-8683-c4d0ddd6de4f}, !- Handle
  2007,                                   !- Calendar Year
  ,                                       !- Day of Week for Start Day
  ;                                       !- Is Leap Year

OS:Site,
  {5cdeb15d-76b9-4d8b-8650-a7c467b1c7c0}, !- Handle
  Buffalo Niagara Intl Ap_NY,             !- Name
  42.93,                                  !- Latitude {deg}
  -78.73,                                 !- Longitude {deg}
  -5,                                     !- Time Zone {hr}
  215,                                    !- Elevation {m}
  Suburbs,                                !- Terrain
  Yes;                                    !- Keep Site Location Information

OS:RunPeriodControl:DaylightSavingTime,
  {7be37627-a228-420f-a2d2-bdf58ffebbfd}, !- Handle
  Mar 12,                                 !- Start Date
  Nov 5;                                  !- End Date

OS:Site:GroundTemperature:Shallow,
  {6c0529eb-cf03-4bbf-8498-038808a9346d}, !- Handle
  4.30207395723828,                       !- January Surface Ground Temperature {C}
  2.29327249652502,                       !- February Surface Ground Temperature {C}
  2.13240047156047,                       !- March Surface Ground Temperature {C}
  3.08567940719286,                       !- April Surface Ground Temperature {C}
  6.91256312497526,                       !- May Surface Ground Temperature {C}
  10.7216195949507,                       !- June Surface Ground Temperature {C}
  14.0238679822574,                       !- July Surface Ground Temperature {C}
  16.1157611184724,                       !- August Surface Ground Temperature {C}
  16.2934789303462,                       !- September Surface Ground Temperature {C}
  14.5920754632847,                       !- October Surface Ground Temperature {C}
  11.374036348653,                        !- November Surface Ground Temperature {C}
  7.68182621661674;                       !- December Surface Ground Temperature {C}

OS:ThermalZone,
  {35c9638e-60e3-40ce-85d4-04b39540d659}, !- Handle
  conditioned space,                      !- Name
  1,                                      !- Multiplier
  ,                                       !- Ceiling Height {m}
  692.06373070848,                        !- Volume {m3}
  ,                                       !- Floor Area {m2}
  ,                                       !- Zone Inside Convection Algorithm
  ,                                       !- Zone Outside Convection Algorithm
  ,                                       !- Zone Conditioning Equipment List Name
  {bc3e10a7-2b18-4cd6-b51b-6b68e17ece3a}, !- Zone Air Inlet Port List
  {e844f164-0e45-42b8-a0a6-4f223d223a62}, !- Zone Air Exhaust Port List
  {b7925b7e-3d26-4c53-9441-f83fff074aeb}, !- Zone Air Node Name
  {d545b8a6-e204-4692-a03e-1d0e42369806}, !- Zone Return Air Port List
  ,                                       !- Primary Daylighting Control Name
  ,                                       !- Fraction of Zone Controlled by Primary Daylighting Control
  ,                                       !- Secondary Daylighting Control Name
  ,                                       !- Fraction of Zone Controlled by Secondary Daylighting Control
  ,                                       !- Illuminance Map Name
  ,                                       !- Group Rendering Name
  {f99a2f72-1520-4fae-8c0e-743e66fb5985}, !- Thermostat Name
  No;                                     !- Use Ideal Air Loads

OS:Node,
  {fcb41883-1992-4cb7-ac85-231a6def55c3}, !- Handle
  Node 1,                                 !- Name
  {b7925b7e-3d26-4c53-9441-f83fff074aeb}, !- Inlet Port
  ;                                       !- Outlet Port

OS:Connection,
  {b7925b7e-3d26-4c53-9441-f83fff074aeb}, !- Handle
  {35c9638e-60e3-40ce-85d4-04b39540d659}, !- Source Object
  11,                                     !- Outlet Port
  {fcb41883-1992-4cb7-ac85-231a6def55c3}, !- Target Object
  2;                                      !- Inlet Port

OS:PortList,
  {bc3e10a7-2b18-4cd6-b51b-6b68e17ece3a}, !- Handle
  {35c9638e-60e3-40ce-85d4-04b39540d659}, !- HVAC Component
  {32eecc39-ed9b-4084-a4a5-3e9650e17d02}; !- Port 1

OS:PortList,
  {e844f164-0e45-42b8-a0a6-4f223d223a62}, !- Handle
  {35c9638e-60e3-40ce-85d4-04b39540d659}; !- HVAC Component

OS:PortList,
  {d545b8a6-e204-4692-a03e-1d0e42369806}, !- Handle
  {35c9638e-60e3-40ce-85d4-04b39540d659}, !- HVAC Component
  {6a246290-4bb5-486b-b4dc-d8eeb6d769c9}; !- Port 1

OS:Sizing:Zone,
  {80a1e2e9-543d-435f-ab42-6e33b194eaba}, !- Handle
  {35c9638e-60e3-40ce-85d4-04b39540d659}, !- Zone or ZoneList Name
  SupplyAirTemperature,                   !- Zone Cooling Design Supply Air Temperature Input Method
  14,                                     !- Zone Cooling Design Supply Air Temperature {C}
  11.11,                                  !- Zone Cooling Design Supply Air Temperature Difference {deltaC}
  SupplyAirTemperature,                   !- Zone Heating Design Supply Air Temperature Input Method
  40,                                     !- Zone Heating Design Supply Air Temperature {C}
  11.11,                                  !- Zone Heating Design Supply Air Temperature Difference {deltaC}
  0.0085,                                 !- Zone Cooling Design Supply Air Humidity Ratio {kg-H2O/kg-air}
  0.008,                                  !- Zone Heating Design Supply Air Humidity Ratio {kg-H2O/kg-air}
  ,                                       !- Zone Heating Sizing Factor
  ,                                       !- Zone Cooling Sizing Factor
  DesignDay,                              !- Cooling Design Air Flow Method
  ,                                       !- Cooling Design Air Flow Rate {m3/s}
  ,                                       !- Cooling Minimum Air Flow per Zone Floor Area {m3/s-m2}
  ,                                       !- Cooling Minimum Air Flow {m3/s}
  ,                                       !- Cooling Minimum Air Flow Fraction
  DesignDay,                              !- Heating Design Air Flow Method
  ,                                       !- Heating Design Air Flow Rate {m3/s}
  ,                                       !- Heating Maximum Air Flow per Zone Floor Area {m3/s-m2}
  ,                                       !- Heating Maximum Air Flow {m3/s}
  ,                                       !- Heating Maximum Air Flow Fraction
  No,                                     !- Account for Dedicated Outdoor Air System
  NeutralSupplyAir,                       !- Dedicated Outdoor Air System Control Strategy
  autosize,                               !- Dedicated Outdoor Air Low Setpoint Temperature for Design {C}
  autosize,                               !- Dedicated Outdoor Air High Setpoint Temperature for Design {C}
  Sensible Load Only No Latent Load,      !- Zone Load Sizing Method
  HumidityRatioDifference,                !- Zone Latent Cooling Design Supply Air Humidity Ratio Input Method
  ,                                       !- Zone Dehumidification Design Supply Air Humidity Ratio {kgWater/kgDryAir}
  0.005,                                  !- Zone Cooling Design Supply Air Humidity Ratio Difference {kgWater/kgDryAir}
  HumidityRatioDifference,                !- Zone Latent Heating Design Supply Air Humidity Ratio Input Method
  ,                                       !- Zone Humidification Design Supply Air Humidity Ratio {kgWater/kgDryAir}
  0.005,                                  !- Zone Humidification Design Supply Air Humidity Ratio Difference {kgWater/kgDryAir}
  ,                                       !- Zone Humidistat Dehumidification Set Point Schedule Name
  ,                                       !- Zone Humidistat Humidification Set Point Schedule Name
  ,                                       !- Design Zone Air Distribution Effectiveness in Cooling Mode
  ,                                       !- Design Zone Air Distribution Effectiveness in Heating Mode
  ,                                       !- Design Zone Secondary Recirculation Fraction {dimensionless}
  ,                                       !- Design Minimum Zone Ventilation Efficiency {dimensionless}
  Coincident;                             !- Sizing Option

OS:ZoneHVAC:EquipmentList,
  {3b549ffd-86f8-4724-b244-8b6f959f8832}, !- Handle
  Zone HVAC Equipment List 1,             !- Name
  {35c9638e-60e3-40ce-85d4-04b39540d659}, !- Thermal Zone
  ,                                       !- Load Distribution Scheme
  {b503d088-5fa3-4c4c-8dab-3bf6538a1ccc}, !- Zone Equipment 1
  1,                                      !- Zone Equipment Cooling Sequence 1
  1,                                      !- Zone Equipment Heating or No-Load Sequence 1
  {c11d7765-3590-44b7-80ef-08913342f261}, !- Zone Equipment Sequential Cooling Fraction Schedule Name 1
  {d809e957-1803-4df4-9b05-43aad66bc580}; !- Zone Equipment Sequential Heating Fraction Schedule Name 1

OS:AdditionalProperties,
  {de001d90-e55b-4835-a473-f874b3ea7a59}, !- Handle
  {35c9638e-60e3-40ce-85d4-04b39540d659}, !- Object Name
  ObjectType,                             !- Feature Name 1
  String,                                 !- Feature Data Type 1
  conditioned space;                      !- Feature Value 1

OS:Space,
  {08c2ea82-eab0-4a23-a9b2-02b7d12d251c}, !- Handle
  conditioned space 1,                    !- Name
  ,                                       !- Space Type Name
  ,                                       !- Default Construction Set Name
  ,                                       !- Default Schedule Set Name
  ,                                       !- Direction of Relative North {deg}
  ,                                       !- X Origin {m}
  ,                                       !- Y Origin {m}
  ,                                       !- Z Origin {m}
  ,                                       !- Building Story Name
  {35c9638e-60e3-40ce-85d4-04b39540d659}, !- Thermal Zone Name
  ,                                       !- Part of Total Floor Area
  ,                                       !- Design Specification Outdoor Air Object Name
  ,                                       !- Building Unit Name
  692.06373070848;                        !- Volume {m3}

OS:Schedule:Ruleset,
  {49bd7def-7a73-4a77-a225-924a56492c34}, !- Handle
  heating setpoint,                       !- Name
  {08e4721e-83a1-491e-8cae-1985f7f34564}, !- Schedule Type Limits Name
  {b14a9579-1c50-4f5a-a2b1-948b0875c35f}; !- Default Day Schedule Name

OS:Schedule:Day,
  {b14a9579-1c50-4f5a-a2b1-948b0875c35f}, !- Handle
  heating setpoint default day,           !- Name
  {08e4721e-83a1-491e-8cae-1985f7f34564}, !- Schedule Type Limits Name
  ,                                       !- Interpolate to Timestep
  24,                                     !- Hour 1
  0,                                      !- Minute 1
  0;                                      !- Value Until Time 1

OS:Schedule:Rule,
  {4ac7866b-8789-40cf-82a5-0255d5a0dd59}, !- Handle
  heating setpoint allday rule,           !- Name
  {49bd7def-7a73-4a77-a225-924a56492c34}, !- Schedule Ruleset Name
  0,                                      !- Rule Order
  {ffef6814-0277-4c5e-a39b-45c4390bc7b6}, !- Day Schedule Name
  Yes,                                    !- Apply Sunday
  Yes,                                    !- Apply Monday
  Yes,                                    !- Apply Tuesday
  Yes,                                    !- Apply Wednesday
  Yes,                                    !- Apply Thursday
  Yes,                                    !- Apply Friday
  Yes,                                    !- Apply Saturday
  DateRange,                              !- Date Specification Type
  1,                                      !- Start Month
  1,                                      !- Start Day
  12,                                     !- End Month
  31;                                     !- End Day

OS:Schedule:Day,
  {ffef6814-0277-4c5e-a39b-45c4390bc7b6}, !- Handle
  heating setpoint day,                   !- Name
  {08e4721e-83a1-491e-8cae-1985f7f34564}, !- Schedule Type Limits Name
  ,                                       !- Interpolate to Timestep
  24,                                     !- Hour 1
  0,                                      !- Minute 1
  20;                                     !- Value Until Time 1

OS:Schedule:Ruleset,
  {eebc28eb-b025-46cc-8e79-5db757d9da62}, !- Handle
  cooling setpoint,                       !- Name
  {08e4721e-83a1-491e-8cae-1985f7f34564}, !- Schedule Type Limits Name
  {bb5b8637-206e-493c-8f8f-194e9a0e2ce9}; !- Default Day Schedule Name

OS:Schedule:Day,
  {bb5b8637-206e-493c-8f8f-194e9a0e2ce9}, !- Handle
  cooling setpoint default day,           !- Name
  {08e4721e-83a1-491e-8cae-1985f7f34564}, !- Schedule Type Limits Name
  ,                                       !- Interpolate to Timestep
  24,                                     !- Hour 1
  0,                                      !- Minute 1
  0;                                      !- Value Until Time 1

OS:Schedule:Rule,
  {acd55b5a-4ef5-4d71-b023-ea53c701cb91}, !- Handle
  cooling setpoint allday rule,           !- Name
  {eebc28eb-b025-46cc-8e79-5db757d9da62}, !- Schedule Ruleset Name
  0,                                      !- Rule Order
  {f166e4a5-7713-4715-8e69-1493e96aa733}, !- Day Schedule Name
  Yes,                                    !- Apply Sunday
  Yes,                                    !- Apply Monday
  Yes,                                    !- Apply Tuesday
  Yes,                                    !- Apply Wednesday
  Yes,                                    !- Apply Thursday
  Yes,                                    !- Apply Friday
  Yes,                                    !- Apply Saturday
  DateRange,                              !- Date Specification Type
  1,                                      !- Start Month
  1,                                      !- Start Day
  12,                                     !- End Month
  31;                                     !- End Day

OS:Schedule:Day,
  {f166e4a5-7713-4715-8e69-1493e96aa733}, !- Handle
  cooling setpoint day,                   !- Name
  {08e4721e-83a1-491e-8cae-1985f7f34564}, !- Schedule Type Limits Name
  ,                                       !- Interpolate to Timestep
  24,                                     !- Hour 1
  0,                                      !- Minute 1
  25.5555555555556;                       !- Value Until Time 1

OS:ThermostatSetpoint:DualSetpoint,
  {f99a2f72-1520-4fae-8c0e-743e66fb5985}, !- Handle
  conditioned space temperature setpoint, !- Name
  {49bd7def-7a73-4a77-a225-924a56492c34}, !- Heating Setpoint Temperature Schedule Name
  {eebc28eb-b025-46cc-8e79-5db757d9da62}, !- Cooling Setpoint Temperature Schedule Name
  0;                                      !- Temperature Difference Between Cutout And Setpoint {deltaC}

OS:ScheduleTypeLimits,
  {08e4721e-83a1-491e-8cae-1985f7f34564}, !- Handle
  Temperature,                            !- Name
  ,                                       !- Lower Limit Value
  ,                                       !- Upper Limit Value
  Continuous,                             !- Numeric Type
  Temperature;                            !- Unit Type

OS:Surface,
  {1d2b3330-b0c3-4201-8180-f51383f657a6}, !- Handle
  Roof1,                                  !- Name
  RoofCeiling,                            !- Surface Type
  {9cf50ac0-ab6d-4bf9-90f5-0aeac620550f}, !- Construction Name
  {2b302b17-e358-43f6-8514-d808993dee25}, !- Space Name
  Outdoors,                               !- Outside Boundary Condition
  ,                                       !- Outside Boundary Condition Object
  SunExposed,                             !- Sun Exposure
  WindExposed,                            !- Wind Exposure
  ,                                       !- View Factor to Ground
  ,                                       !- Number of Vertices
  -26.9347048849634, 58.0557891618865, 2.4384, !- X,Y,Z Vertex 1 {m}
  -26.9347048849634, 46.7895631136661, 8.0715130241102, !- X,Y,Z Vertex 2 {m}
  -14.3386812381136, 46.7895631136661, 8.0715130241102, !- X,Y,Z Vertex 3 {m}
  -14.3386812381136, 58.0557891618865, 2.4384; !- X,Y,Z Vertex 4 {m}

OS:AdditionalProperties,
  {4fda214b-c401-424b-9624-3ec8de6cf31c}, !- Handle
  {1d2b3330-b0c3-4201-8180-f51383f657a6}, !- Object Name
  Length,                                 !- Feature Name 1
  Double,                                 !- Feature Data Type 1
  41.325536899113608,                     !- Feature Value 1
  Width,                                  !- Feature Name 2
  Double,                                 !- Feature Data Type 2
  41.325536899113601,                     !- Feature Value 2
  Azimuth,                                !- Feature Name 3
  Integer,                                !- Feature Data Type 3
  0,                                      !- Feature Value 3
  Tilt,                                   !- Feature Name 4
  Double,                                 !- Feature Data Type 4
  0.5,                                    !- Feature Value 4
  SurfaceType,                            !- Feature Name 5
  String,                                 !- Feature Data Type 5
  Roof;                                   !- Feature Value 5

OS:ThermalZone,
  {1d22bb9c-03f5-44bf-a74d-68b8cafaaf26}, !- Handle
  attic - vented,                         !- Name
  1,                                      !- Multiplier
  ,                                       !- Ceiling Height {m}
  356.389957095237,                       !- Volume {m3}
  ,                                       !- Floor Area {m2}
  ,                                       !- Zone Inside Convection Algorithm
  ,                                       !- Zone Outside Convection Algorithm
  ,                                       !- Zone Conditioning Equipment List Name
  {0b588288-df79-4767-aaa6-71c568e4e3ba}, !- Zone Air Inlet Port List
  {d145fa51-78e1-4520-afbe-1c615a26ba54}, !- Zone Air Exhaust Port List
  {8fa648bc-ae1a-4ad6-b8ce-3b14ff61c552}, !- Zone Air Node Name
  {c0f9d243-3483-4558-b6d3-598b33254cf7}, !- Zone Return Air Port List
  ,                                       !- Primary Daylighting Control Name
  ,                                       !- Fraction of Zone Controlled by Primary Daylighting Control
  ,                                       !- Secondary Daylighting Control Name
  ,                                       !- Fraction of Zone Controlled by Secondary Daylighting Control
  ,                                       !- Illuminance Map Name
  ,                                       !- Group Rendering Name
  ,                                       !- Thermostat Name
  No;                                     !- Use Ideal Air Loads

OS:Node,
  {fc35043b-0e72-43fd-bcfc-c81609b4652d}, !- Handle
  Node 2,                                 !- Name
  {8fa648bc-ae1a-4ad6-b8ce-3b14ff61c552}, !- Inlet Port
  ;                                       !- Outlet Port

OS:Connection,
  {8fa648bc-ae1a-4ad6-b8ce-3b14ff61c552}, !- Handle
  {1d22bb9c-03f5-44bf-a74d-68b8cafaaf26}, !- Source Object
  11,                                     !- Outlet Port
  {fc35043b-0e72-43fd-bcfc-c81609b4652d}, !- Target Object
  2;                                      !- Inlet Port

OS:PortList,
  {0b588288-df79-4767-aaa6-71c568e4e3ba}, !- Handle
  {1d22bb9c-03f5-44bf-a74d-68b8cafaaf26}; !- HVAC Component

OS:PortList,
  {d145fa51-78e1-4520-afbe-1c615a26ba54}, !- Handle
  {1d22bb9c-03f5-44bf-a74d-68b8cafaaf26}; !- HVAC Component

OS:PortList,
  {c0f9d243-3483-4558-b6d3-598b33254cf7}, !- Handle
  {1d22bb9c-03f5-44bf-a74d-68b8cafaaf26}; !- HVAC Component

OS:Sizing:Zone,
  {8d070e84-6475-4717-9eba-1051095c351b}, !- Handle
  {1d22bb9c-03f5-44bf-a74d-68b8cafaaf26}, !- Zone or ZoneList Name
  SupplyAirTemperature,                   !- Zone Cooling Design Supply Air Temperature Input Method
  14,                                     !- Zone Cooling Design Supply Air Temperature {C}
  11.11,                                  !- Zone Cooling Design Supply Air Temperature Difference {deltaC}
  SupplyAirTemperature,                   !- Zone Heating Design Supply Air Temperature Input Method
  40,                                     !- Zone Heating Design Supply Air Temperature {C}
  11.11,                                  !- Zone Heating Design Supply Air Temperature Difference {deltaC}
  0.0085,                                 !- Zone Cooling Design Supply Air Humidity Ratio {kg-H2O/kg-air}
  0.008,                                  !- Zone Heating Design Supply Air Humidity Ratio {kg-H2O/kg-air}
  ,                                       !- Zone Heating Sizing Factor
  ,                                       !- Zone Cooling Sizing Factor
  DesignDay,                              !- Cooling Design Air Flow Method
  ,                                       !- Cooling Design Air Flow Rate {m3/s}
  ,                                       !- Cooling Minimum Air Flow per Zone Floor Area {m3/s-m2}
  ,                                       !- Cooling Minimum Air Flow {m3/s}
  ,                                       !- Cooling Minimum Air Flow Fraction
  DesignDay,                              !- Heating Design Air Flow Method
  ,                                       !- Heating Design Air Flow Rate {m3/s}
  ,                                       !- Heating Maximum Air Flow per Zone Floor Area {m3/s-m2}
  ,                                       !- Heating Maximum Air Flow {m3/s}
  ,                                       !- Heating Maximum Air Flow Fraction
  No,                                     !- Account for Dedicated Outdoor Air System
  NeutralSupplyAir,                       !- Dedicated Outdoor Air System Control Strategy
  autosize,                               !- Dedicated Outdoor Air Low Setpoint Temperature for Design {C}
  autosize,                               !- Dedicated Outdoor Air High Setpoint Temperature for Design {C}
  Sensible Load Only No Latent Load,      !- Zone Load Sizing Method
  HumidityRatioDifference,                !- Zone Latent Cooling Design Supply Air Humidity Ratio Input Method
  ,                                       !- Zone Dehumidification Design Supply Air Humidity Ratio {kgWater/kgDryAir}
  0.005,                                  !- Zone Cooling Design Supply Air Humidity Ratio Difference {kgWater/kgDryAir}
  HumidityRatioDifference,                !- Zone Latent Heating Design Supply Air Humidity Ratio Input Method
  ,                                       !- Zone Humidification Design Supply Air Humidity Ratio {kgWater/kgDryAir}
  0.005,                                  !- Zone Humidification Design Supply Air Humidity Ratio Difference {kgWater/kgDryAir}
  ,                                       !- Zone Humidistat Dehumidification Set Point Schedule Name
  ,                                       !- Zone Humidistat Humidification Set Point Schedule Name
  ,                                       !- Design Zone Air Distribution Effectiveness in Cooling Mode
  ,                                       !- Design Zone Air Distribution Effectiveness in Heating Mode
  ,                                       !- Design Zone Secondary Recirculation Fraction {dimensionless}
  ,                                       !- Design Minimum Zone Ventilation Efficiency {dimensionless}
  Coincident;                             !- Sizing Option

OS:ZoneHVAC:EquipmentList,
  {f29b1256-2f98-4d0b-8214-ffa47fc65bf9}, !- Handle
  Zone HVAC Equipment List 2,             !- Name
  {1d22bb9c-03f5-44bf-a74d-68b8cafaaf26}; !- Thermal Zone

OS:AdditionalProperties,
  {57aa9397-bcf1-4975-97f4-fb80cb74fb2a}, !- Handle
  {1d22bb9c-03f5-44bf-a74d-68b8cafaaf26}, !- Object Name
  ObjectType,                             !- Feature Name 1
  String,                                 !- Feature Data Type 1
  attic - vented;                         !- Feature Value 1

OS:Space,
  {2b302b17-e358-43f6-8514-d808993dee25}, !- Handle
  attic - vented 1,                       !- Name
  ,                                       !- Space Type Name
  ,                                       !- Default Construction Set Name
  ,                                       !- Default Schedule Set Name
  ,                                       !- Direction of Relative North {deg}
  ,                                       !- X Origin {m}
  ,                                       !- Y Origin {m}
  ,                                       !- Z Origin {m}
  ,                                       !- Building Story Name
  {1d22bb9c-03f5-44bf-a74d-68b8cafaaf26}, !- Thermal Zone Name
  ,                                       !- Part of Total Floor Area
  ,                                       !- Design Specification Outdoor Air Object Name
  ,                                       !- Building Unit Name
  356.389957095237;                       !- Volume {m3}

OS:Material,
  {6d602ada-d31c-445c-b440-3912bc559688}, !- Handle
  asphalt or fiberglass shingles,         !- Name
  Rough,                                  !- Roughness
  0.00635,                                !- Thickness {m}
  0.162714,                               !- Conductivity {W/m-K}
  1121.4,                                 !- Density {kg/m3}
  1465.45,                                !- Specific Heat {J/kg-K}
  0.9,                                    !- Thermal Absorptance
  0.85,                                   !- Solar Absorptance