
OS:Version,
  {bf51c97e-1186-4abe-b145-25407df01372}, !- Handle
  3.10.0;                                 !- Version Identifier

OS:SimulationControl,
  {c7a1eb71-85a7-471e-86b8-cc69f982985d}, !- Handle
  ,                                       !- Do Zone Sizing Calculation
  ,                                       !- Do System Sizing Calculation
  ,                                       !- Do Plant Sizing Calculation
  No;                                     !- Run Simulation for Sizing Periods

OS:Timestep,
  {b328c598-a246-4426-8457-c133b7a21a98}, !- Handle
  1;                                      !- Number of Timesteps per Hour

OS:ShadowCalculation,
  {c76b2060-a322-4d02-b44a-57f5a5939f3c}, !- Handle
  PolygonClipping,                        !- Shading Calculation Method
  ,                                       !- Shading Calculation Update Frequency Method
  20,                                     !- Shading Calculation Update Frequency
  200,                                    !- Maximum Figures in Shadow Overlap Calculations
  ,                                       !- Polygon Clipping Algorithm
  512,                                    !- Pixel Counting Resolution
  ,                                       !- Sky Diffuse Modeling Algorithm
  No,                                     !- Output External Shading Calculation Results
  No,                                     !- Disable Self-Shading Within Shading Zone Groups
  No;                                     !- Disable Self-Shading From Shading Zone Groups to Other Zones

OS:SurfaceConvectionAlgorithm:Outside,
  {16ac8bd0-536b-4bf1-9c11-8b9654f7c9b9}, !- Handle
  DOE-2;                                  !- Algorithm

OS:SurfaceConvectionAlgorithm:Inside,
  {c8776538-1139-435e-9da6-5d0ed79cff7c}, !- Handle
  TARP;                                   !- Algorithm

OS:ZoneCapacitanceMultiplier:ResearchSpecial,
  {64073629-7fe7-4f50-8b16-8046ba9ae164}, !- Handle
  7,                                      !- Temperature Capacity Multiplier
  15,                                     !- Humidity Capacity Multiplier
  ;                                       !- Carbon Dioxide Capacity Multiplier

OS:ConvergenceLimits,
  {3edebe22-7a1e-42d8-bbc8-d65aa4b42243}, !- Handle
  0;                                      !- Minimum System Timestep {minutes}

OS:RunPeriod,
  {9bc6466e-5c6e-432a-ad88-e2daee347cac}, !- Handle
  Run Period 1,                           !- Name
  1,                                      !- Begin Month
  1,                                      !- Begin Day of Month
  12,                                     !- End Month
  31,                                     !- End Day of Month
  ,                                       !- Use Weather File Holidays and Special Days
  ,                                       !- Use Weather File Daylight Saving Period
  ,                                       !- Apply Weekend Holiday Rule
  ,                                       !- Use Weather File Rain Indicators
  ,                                       !- Use Weather File Snow Indicators
  ;                                       !- Number of Times Runperiod to be Repeated

OS:PerformancePrecisionTradeoffs,
  {d0caf0d7-c396-4595-a7c3-8c2491664a3f}, !- Handle
  ,                                       !- Use Coil Direct Solutions
  CarrollMRT;                             !- Zone Radiant Exchange Algorithm

OS:WeatherFile,
  {830065ad-56da-4fca-8f8e-0e192c8a3f64}, !- Handle
  Buffalo Niagara Intl Ap,                !- City
  NY,                                     !- State Province Region
  USA,                                    !- Country
  TMY3,                                   !- Data Source
  725280,                                 !- WMO Number
  42.93,                                  !- Latitude {deg}
  -78.73,                                 !- Longitude {deg}
  -5,                                     !- Time Zone {hr}
  215,                                    !- Elevation {m}
  /Users/nmoore/github/urbanopt-example-geojson-project/example_project/weather/USA_NY_Buffalo-Greater.Buffalo.Intl.AP.725280_TMY3.epw, !- Url
  6B50E0FF,                               !- Checksum
  ,                                       !- Start Date Actual Year
  Sunday;                                 !- Start Day of Week

OS:YearDescription,
  {ed4865e1-fcd8-4774-b4e7-404ed09f6c91}, !- Handle
  2007,                                   !- Calendar Year
  ,                                       !- Day of Week for Start Day
  ;                                       !- Is Leap Year

OS:Site,
  {537cb1d5-9470-4ae9-9e55-c5c68f513cf5}, !- Handle
  Buffalo Niagara Intl Ap_NY,             !- Name
  42.93,                                  !- Latitude {deg}
  -78.73,                                 !- Longitude {deg}
  -5,                                     !- Time Zone {hr}
  215,                                    !- Elevation {m}
  Suburbs,                                !- Terrain
  Yes;                                    !- Keep Site Location Information

OS:RunPeriodControl:DaylightSavingTime,
  {b77e16df-9286-4ee1-bc59-e91cec3c72d0}, !- Handle
  Mar 12,                                 !- Start Date
  Nov 5;                                  !- End Date

OS:Site:GroundTemperature:Shallow,
  {b41ae2f9-6f7c-4312-bc36-d62ecad1caa3}, !- Handle
  4.30207395723828,                       !- January Surface Ground Temperature {C}
  2.29327249652502,                       !- February Surface Ground Temperature {C}
  2.13240047156047,                       !- March Surface Ground Temperature {C}
  3.08567940719286,                       !- April Surface Ground Temperature {C}
  6.91256312497526,                       !- May Surface Ground Temperature {C}
  10.7216195949507,                       !- June Surface Ground Temperature {C}
  14.0238679822574,                       !- July Surface Ground Temperature {C}
  16.1157611184724,                       !- August Surface Ground Temperature {C}
  16.2934789303462,                       !- September Surface Ground Temperature {C}
  14.5920754632847,                       !- October Surface Ground Temperature {C}
  11.374036348653,                        !- November Surface Ground Temperature {C}
  7.68182621661674;                       !- December Surface Ground Temperature {C}

OS:ThermalZone,
  {2b4f7a0c-de4b-4d23-b715-6038df37814f}, !- Handle
  conditioned space,                      !- Name
  1,                                      !- Multiplier
  ,                                       !- Ceiling Height {m}
  692.06373070848,                        !- Volume {m3}
  ,                                       !- Floor Area {m2}
  ,                                       !- Zone Inside Convection Algorithm
  ,                                       !- Zone Outside Convection Algorithm
  ,                                       !- Zone Conditioning Equipment List Name
  {840ea2a7-bf98-44dc-bfb4-514cf10d9bdd}, !- Zone Air Inlet Port List
  {72a7cd6e-2c03-4dd8-9326-f2611a847c4e}, !- Zone Air Exhaust Port List
  {0e0c2488-9138-4253-9262-7e60de1e5b32}, !- Zone Air Node Name
  {84c2bd02-3d34-4f09-8ec7-800876b2ff3b}, !- Zone Return Air Port List
  ,                                       !- Primary Daylighting Control Name
  ,                                       !- Fraction of Zone Controlled by Primary Daylighting Control
  ,                                       !- Secondary Daylighting Control Name
  ,                                       !- Fraction of Zone Controlled by Secondary Daylighting Control
  ,                                       !- Illuminance Map Name
  ,                                       !- Group Rendering Name
  {3db5019f-834f-4da2-b110-53a50cad319d}, !- Thermostat Name
  No;                                     !- Use Ideal Air Loads

OS:Node,
  {cd01b278-fb68-46dd-a9fa-f6d9a19ff59e}, !- Handle
  Node 1,                                 !- Name
  {0e0c2488-9138-4253-9262-7e60de1e5b32}, !- Inlet Port
  ;                                       !- Outlet Port

OS:Connection,
  {0e0c2488-9138-4253-9262-7e60de1e5b32}, !- Handle
  {2b4f7a0c-de4b-4d23-b715-6038df37814f}, !- Source Object
  11,                                     !- Outlet Port
  {cd01b278-fb68-46dd-a9fa-f6d9a19ff59e}, !- Target Object
  2;                                      !- Inlet Port

OS:PortList,
  {840ea2a7-bf98-44dc-bfb4-514cf10d9bdd}, !- Handle
  {2b4f7a0c-de4b-4d23-b715-6038df37814f}, !- HVAC Component
  {8823d3ed-237c-4629-8c64-9caac4267a9f}; !- Port 1

OS:PortList,
  {72a7cd6e-2c03-4dd8-9326-f2611a847c4e}, !- Handle
  {2b4f7a0c-de4b-4d23-b715-6038df37814f}; !- HVAC Component

OS:PortList,
  {84c2bd02-3d34-4f09-8ec7-800876b2ff3b}, !- Handle
  {2b4f7a0c-de4b-4d23-b715-6038df37814f}, !- HVAC Component
  {41d0f1d6-315e-4c4b-beeb-f496cbef1a47}; !- Port 1

OS:Sizing:Zone,
  {63313aae-6a4f-4499-a029-ee0289516856}, !- Handle
  {2b4f7a0c-de4b-4d23-b715-6038df37814f}, !- Zone or ZoneList Name
  SupplyAirTemperature,                   !- Zone Cooling Design Supply Air Temperature Input Method
  14,                                     !- Zone Cooling Design Supply Air Temperature {C}
  11.11,                                  !- Zone Cooling Design Supply Air Temperature Difference {deltaC}
  SupplyAirTemperature,                   !- Zone Heating Design Supply Air Temperature Input Method
  40,                                     !- Zone Heating Design Supply Air Temperature {C}
  11.11,                                  !- Zone Heating Design Supply Air Temperature Difference {deltaC}
  0.0085,                                 !- Zone Cooling Design Supply Air Humidity Ratio {kg-H2O/kg-air}
  0.008,                                  !- Zone Heating Design Supply Air Humidity Ratio {kg-H2O/kg-air}
  ,                                       !- Zone Heating Sizing Factor
  ,                                       !- Zone Cooling Sizing Factor
  DesignDay,                              !- Cooling Design Air Flow Method
  ,                                       !- Cooling Design Air Flow Rate {m3/s}
  ,                                       !- Cooling Minimum Air Flow per Zone Floor Area {m3/s-m2}
  ,                                       !- Cooling Minimum Air Flow {m3/s}
  ,                                       !- Cooling Minimum Air Flow Fraction
  DesignDay,                              !- Heating Design Air Flow Method
  ,                                       !- Heating Design Air Flow Rate {m3/s}
  ,                                       !- Heating Maximum Air Flow per Zone Floor Area {m3/s-m2}
  ,                                       !- Heating Maximum Air Flow {m3/s}
  ,                                       !- Heating Maximum Air Flow Fraction
  No,                                     !- Account for Dedicated Outdoor Air System
  NeutralSupplyAir,                       !- Dedicated Outdoor Air System Control Strategy
  autosize,                               !- Dedicated Outdoor Air Low Setpoint Temperature for Design {C}
  autosize,                               !- Dedicated Outdoor Air High Setpoint Temperature for Design {C}
  Sensible Load Only No Latent Load,      !- Zone Load Sizing Method
  HumidityRatioDifference,                !- Zone Latent Cooling Design Supply Air Humidity Ratio Input Method
  ,                                       !- Zone Dehumidification Design Supply Air Humidity Ratio {kgWater/kgDryAir}
  0.005,                                  !- Zone Cooling Design Supply Air Humidity Ratio Difference {kgWater/kgDryAir}
  HumidityRatioDifference,                !- Zone Latent Heating Design Supply Air Humidity Ratio Input Method
  ,                                       !- Zone Humidification Design Supply Air Humidity Ratio {kgWater/kgDryAir}
  0.005,                                  !- Zone Humidification Design Supply Air Humidity Ratio Difference {kgWater/kgDryAir}
  ,                                       !- Zone Humidistat Dehumidification Set Point Schedule Name
  ,                                       !- Zone Humidistat Humidification Set Point Schedule Name
  ,                                       !- Design Zone Air Distribution Effectiveness in Cooling Mode
  ,                                       !- Design Zone Air Distribution Effectiveness in Heating Mode
  ,                                       !- Design Zone Secondary Recirculation Fraction {dimensionless}
  ,                                       !- Design Minimum Zone Ventilation Efficiency {dimensionless}
  Coincident;                             !- Sizing Option

OS:ZoneHVAC:EquipmentList,
  {045aa169-db94-45d5-9603-4d8bb14a2740}, !- Handle
  Zone HVAC Equipment List 1,             !- Name
  {2b4f7a0c-de4b-4d23-b715-6038df37814f}, !- Thermal Zone
  ,                                       !- Load Distribution Scheme
  {625959d3-1260-4223-a9ce-1924ef22fb8b}, !- Zone Equipment 1
  1,                                      !- Zone Equipment Cooling Sequence 1
  1,                                      !- Zone Equipment Heating or No-Load Sequence 1
  {d76cb532-1b2a-4670-a54c-a46795195ccc}, !- Zone Equipment Sequential Cooling Fraction Schedule Name 1
  {8036b31d-70ec-46fb-84ed-82de6fa3cbd0}; !- Zone Equipment Sequential Heating Fraction Schedule Name 1

OS:AdditionalProperties,
  {76f4663d-6a9b-4386-a7bc-307243f64eb9}, !- Handle
  {2b4f7a0c-de4b-4d23-b715-6038df37814f}, !- Object Name
  ObjectType,                             !- Feature Name 1
  String,                                 !- Feature Data Type 1
  conditioned space;                      !- Feature Value 1

OS:Space,
  {703ef553-5f01-4053-aaa0-81cf9a1f27d0}, !- Handle
  conditioned space 1,                    !- Name
  ,                                       !- Space Type Name
  ,                                       !- Default Construction Set Name
  ,                                       !- Default Schedule Set Name
  ,                                       !- Direction of Relative North {deg}
  ,                                       !- X Origin {m}
  ,                                       !- Y Origin {m}
  ,                                       !- Z Origin {m}
  ,                                       !- Building Story Name
  {2b4f7a0c-de4b-4d23-b715-6038df37814f}, !- Thermal Zone Name
  ,                                       !- Part of Total Floor Area
  ,                                       !- Design Specification Outdoor Air Object Name
  ,                                       !- Building Unit Name
  692.06373070848;                        !- Volume {m3}

OS:Schedule:Ruleset,
  {bb0312cc-b473-4504-b3e4-c5f26522fe2c}, !- Handle
  heating setpoint,                       !- Name
  {4b22f1ff-2ad3-409b-b42a-5790b1279ae2}, !- Schedule Type Limits Name
  {67f8cb99-0c18-4f68-8d67-5f4cd6a27705}; !- Default Day Schedule Name

OS:Schedule:Day,
  {67f8cb99-0c18-4f68-8d67-5f4cd6a27705}, !- Handle
  heating setpoint default day,           !- Name
  {4b22f1ff-2ad3-409b-b42a-5790b1279ae2}, !- Schedule Type Limits Name
  ,                                       !- Interpolate to Timestep
  24,                                     !- Hour 1
  0,                                      !- Minute 1
  0;                                      !- Value Until Time 1

OS:Schedule:Rule,
  {2350a12b-b352-4fbb-81ef-ce5c3d727f40}, !- Handle
  heating setpoint allday rule,           !- Name
  {bb0312cc-b473-4504-b3e4-c5f26522fe2c}, !- Schedule Ruleset Name
  0,                                      !- Rule Order
  {4d14b7a3-7b4f-400b-ba17-324e1fc36e87}, !- Day Schedule Name
  Yes,                                    !- Apply Sunday
  Yes,                                    !- Apply Monday
  Yes,                                    !- Apply Tuesday
  Yes,                                    !- Apply Wednesday
  Yes,                                    !- Apply Thursday
  Yes,                                    !- Apply Friday
  Yes,                                    !- Apply Saturday
  DateRange,                              !- Date Specification Type
  1,                                      !- Start Month
  1,                                      !- Start Day
  12,                                     !- End Month
  31;                                     !- End Day

OS:Schedule:Day,
  {4d14b7a3-7b4f-400b-ba17-324e1fc36e87}, !- Handle
  heating setpoint day,                   !- Name
  {4b22f1ff-2ad3-409b-b42a-5790b1279ae2}, !- Schedule Type Limits Name
  ,                                       !- Interpolate to Timestep
  24,                                     !- Hour 1
  0,                                      !- Minute 1
  20;                                     !- Value Until Time 1

OS:Schedule:Ruleset,
  {45f4fc5d-669f-48be-b1b7-2e5a29ddbe66}, !- Handle
  cooling setpoint,                       !- Name
  {4b22f1ff-2ad3-409b-b42a-5790b1279ae2}, !- Schedule Type Limits Name
  {da6dcc97-ff48-494b-820e-ca6ce7731804}; !- Default Day Schedule Name

OS:Schedule:Day,
  {da6dcc97-ff48-494b-820e-ca6ce7731804}, !- Handle
  cooling setpoint default day,           !- Name
  {4b22f1ff-2ad3-409b-b42a-5790b1279ae2}, !- Schedule Type Limits Name
  ,                                       !- Interpolate to Timestep
  24,                                     !- Hour 1
  0,                                      !- Minute 1
  0;                                      !- Value Until Time 1

OS:Schedule:Rule,
  {4f04a394-9d44-4e82-bf72-d101d5c6a273}, !- Handle
  cooling setpoint allday rule,           !- Name
  {45f4fc5d-669f-48be-b1b7-2e5a29ddbe66}, !- Schedule Ruleset Name
  0,                                      !- Rule Order
  {aa593d90-eb32-4b05-9315-b63ab4423fa7}, !- Day Schedule Name
  Yes,                                    !- Apply Sunday
  Yes,                                    !- Apply Monday
  Yes,                                    !- Apply Tuesday
  Yes,                                    !- Apply Wednesday
  Yes,                                    !- Apply Thursday
  Yes,                                    !- Apply Friday
  Yes,                                    !- Apply Saturday
  DateRange,                              !- Date Specification Type
  1,                                      !- Start Month
  1,                                      !- Start Day
  12,                                     !- End Month
  31;                                     !- End Day

OS:Schedule:Day,
  {aa593d90-eb32-4b05-9315-b63ab4423fa7}, !- Handle
  cooling setpoint day,                   !- Name
  {4b22f1ff-2ad3-409b-b42a-5790b1279ae2}, !- Schedule Type Limits Name
  ,                                       !- Interpolate to Timestep
  24,                                     !- Hour 1
  0,                                      !- Minute 1
  25.5555555555556;                       !- Value Until Time 1

OS:ThermostatSetpoint:DualSetpoint,
  {3db5019f-834f-4da2-b110-53a50cad319d}, !- Handle
  conditioned space temperature setpoint, !- Name
  {bb0312cc-b473-4504-b3e4-c5f26522fe2c}, !- Heating Setpoint Temperature Schedule Name
  {45f4fc5d-669f-48be-b1b7-2e5a29ddbe66}, !- Cooling Setpoint Temperature Schedule Name
  0;                                      !- Temperature Difference Between Cutout And Setpoint {deltaC}

OS:ScheduleTypeLimits,
  {4b22f1ff-2ad3-409b-b42a-5790b1279ae2}, !- Handle
  Temperature,                            !- Name
  ,                                       !- Lower Limit Value
  ,                                       !- Upper Limit Value
  Continuous,                             !- Numeric Type
  Temperature;                            !- Unit Type

OS:Surface,
  {84ece9a5-f25a-48e7-ac79-24b7d6ef8b43}, !- Handle
  Roof1,                                  !- Name
  RoofCeiling,                            !- Surface Type
  {1361fa1a-d61f-4977-a936-2fc7dc1b87ab}, !- Construction Name
  {76f7d64e-f2f7-4186-b024-7f876975a752}, !- Space Name
  Outdoors,                               !- Outside Boundary Condition
  ,                                       !- Outside Boundary Condition Object
  SunExposed,                             !- Sun Exposure
  WindExposed,                            !- Wind Exposure
  ,                                       !- View Factor to Ground
  ,                                       !- Number of Vertices
  -26.9347048849634, 58.0557891618865, 2.4384, !- X,Y,Z Vertex 1 {m}
  -26.9347048849634, 46.7895631136661, 8.0715130241102, !- X,Y,Z Vertex 2 {m}
  -14.3386812381136, 46.7895631136661, 8.0715130241102, !- X,Y,Z Vertex 3 {m}
  -14.3386812381136, 58.0557891618865, 2.4384; !- X,Y,Z Vertex 4 {m}

OS:AdditionalProperties,
  {00b3467b-5ee8-4177-b2ef-6fb853b68c1c}, !- Handle
  {84ece9a5-f25a-48e7-ac79-24b7d6ef8b43}, !- Object Name
  Length,                                 !- Feature Name 1
  Double,                                 !- Feature Data Type 1
  41.325536899113608,                     !- Feature Value 1
  Width,                                  !- Feature Name 2
  Double,                                 !- Feature Data Type 2
  41.325536899113601,                     !- Feature Value 2
  Azimuth,                                !- Feature Name 3
  Integer,                                !- Feature Data Type 3
  0,                                      !- Feature Value 3
  Tilt,                                   !- Feature Name 4
  Double,                                 !- Feature Data Type 4
  0.5,                                    !- Feature Value 4
  SurfaceType,                            !- Feature Name 5
  String,                                 !- Feature Data Type 5
  Roof;                                   !- Feature Value 5

OS:ThermalZone,
  {188e5ee4-1b95-4ba0-831c-ab5da56a82f8}, !- Handle
  attic - vented,                         !- Name
  1,                                      !- Multiplier
  ,                                       !- Ceiling Height {m}
  356.390921899745,                       !- Volume {m3}
  ,                                       !- Floor Area {m2}
  ,                                       !- Zone Inside Convection Algorithm
  ,                                       !- Zone Outside Convection Algorithm
  ,                                       !- Zone Conditioning Equipment List Name
  {b35a60a8-5e59-410e-91bf-d10fa347a7a5}, !- Zone Air Inlet Port List
  {0dadb93e-4b4c-4837-bb29-35978f34d68f}, !- Zone Air Exhaust Port List
  {92c093a2-54d5-41ff-bf5f-df856b06d2f1}, !- Zone Air Node Name
  {972b160a-59aa-4f6d-b0a3-acdf00088690}, !- Zone Return Air Port List
  ,                                       !- Primary Daylighting Control Name
  ,                                       !- Fraction of Zone Controlled by Primary Daylighting Control
  ,                                       !- Secondary Daylighting Control Name
  ,                                       !- Fraction of Zone Controlled by Secondary Daylighting Control
  ,                                       !- Illuminance Map Name
  ,                                       !- Group Rendering Name
  ,                                       !- Thermostat Name
  No;                                     !- Use Ideal Air Loads

OS:Node,
  {d57c9013-ef5c-4427-9b24-ed3340265efb}, !- Handle
  Node 2,                                 !- Name
  {92c093a2-54d5-41ff-bf5f-df856b06d2f1}, !- Inlet Port
  ;                                       !- Outlet Port

OS:Connection,
  {92c093a2-54d5-41ff-bf5f-df856b06d2f1}, !- Handle
  {188e5ee4-1b95-4ba0-831c-ab5da56a82f8}, !- Source Object
  11,                                     !- Outlet Port
  {d57c9013-ef5c-4427-9b24-ed3340265efb}, !- Target Object
  2;                                      !- Inlet Port

OS:PortList,
  {b35a60a8-5e59-410e-91bf-d10fa347a7a5}, !- Handle
  {188e5ee4-1b95-4ba0-831c-ab5da56a82f8}; !- HVAC Component

OS:PortList,
  {0dadb93e-4b4c-4837-bb29-35978f34d68f}, !- Handle
  {188e5ee4-1b95-4ba0-831c-ab5da56a82f8}; !- HVAC Component

OS:PortList,
  {972b160a-59aa-4f6d-b0a3-acdf00088690}, !- Handle
  {188e5ee4-1b95-4ba0-831c-ab5da56a82f8}; !- HVAC Component

OS:Sizing:Zone,
  {edbb5c94-7b04-4b02-95f6-ae0136e76fed}, !- Handle
  {188e5ee4-1b95-4ba0-831c-ab5da56a82f8}, !- Zone or ZoneList Name
  SupplyAirTemperature,                   !- Zone Cooling Design Supply Air Temperature Input Method
  14,                                     !- Zone Cooling Design Supply Air Temperature {C}
  11.11,                                  !- Zone Cooling Design Supply Air Temperature Difference {deltaC}
  SupplyAirTemperature,                   !- Zone Heating Design Supply Air Temperature Input Method
  40,                                     !- Zone Heating Design Supply Air Temperature {C}
  11.11,                                  !- Zone Heating Design Supply Air Temperature Difference {deltaC}
  0.0085,                                 !- Zone Cooling Design Supply Air Humidity Ratio {kg-H2O/kg-air}
  0.008,                                  !- Zone Heating Design Supply Air Humidity Ratio {kg-H2O/kg-air}
  ,                                       !- Zone Heating Sizing Factor
  ,                                       !- Zone Cooling Sizing Factor
  DesignDay,                              !- Cooling Design Air Flow Method
  ,                                       !- Cooling Design Air Flow Rate {m3/s}
  ,                                       !- Cooling Minimum Air Flow per Zone Floor Area {m3/s-m2}
  ,                                       !- Cooling Minimum Air Flow {m3/s}
  ,                                       !- Cooling Minimum Air Flow Fraction
  DesignDay,                              !- Heating Design Air Flow Method
  ,                                       !- Heating Design Air Flow Rate {m3/s}
  ,                                       !- Heating Maximum Air Flow per Zone Floor Area {m3/s-m2}
  ,                                       !- Heating Maximum Air Flow {m3/s}
  ,                                       !- Heating Maximum Air Flow Fraction
  No,                                     !- Account for Dedicated Outdoor Air System
  NeutralSupplyAir,                       !- Dedicated Outdoor Air System Control Strategy
  autosize,                               !- Dedicated Outdoor Air Low Setpoint Temperature for Design {C}
  autosize,                               !- Dedicated Outdoor Air High Setpoint Temperature for Design {C}
  Sensible Load Only No Latent Load,      !- Zone Load Sizing Method
  HumidityRatioDifference,                !- Zone Latent Cooling Design Supply Air Humidity Ratio Input Method
  ,                                       !- Zone Dehumidification Design Supply Air Humidity Ratio {kgWater/kgDryAir}
  0.005,                                  !- Zone Cooling Design Supply Air Humidity Ratio Difference {kgWater/kgDryAir}
  HumidityRatioDifference,                !- Zone Latent Heating Design Supply Air Humidity Ratio Input Method
  ,                                       !- Zone Humidification Design Supply Air Humidity Ratio {kgWater/kgDryAir}
  0.005,                                  !- Zone Humidification Design Supply Air Humidity Ratio Difference {kgWater/kgDryAir}
  ,                                       !- Zone Humidistat Dehumidification Set Point Schedule Name
  ,                                       !- Zone Humidistat Humidification Set Point Schedule Name
  ,                                       !- Design Zone Air Distribution Effectiveness in Cooling Mode
  ,                                       !- Design Zone Air Distribution Effectiveness in Heating Mode
  ,                                       !- Design Zone Secondary Recirculation Fraction {dimensionless}
  ,                                       !- Design Minimum Zone Ventilation Efficiency {dimensionless}
  Coincident;                             !- Sizing Option

OS:ZoneHVAC:EquipmentList,
  {0ff4049a-ae5b-44a6-bed8-1c61a6edfa08}, !- Handle
  Zone HVAC Equipment List 2,             !- Name
  {188e5ee4-1b95-4ba0-831c-ab5da56a82f8}; !- Thermal Zone

OS:AdditionalProperties,
  {dbe42d94-0124-4101-b8fe-e0a2ff694baa}, !- Handle
  {188e5ee4-1b95-4ba0-831c-ab5da56a82f8}, !- Object Name
  ObjectType,                             !- Feature Name 1
  String,                                 !- Feature Data Type 1
  attic - vented;                         !- Feature Value 1

OS:Space,
  {76f7d64e-f2f7-4186-b024-7f876975a752}, !- Handle
  attic - vented 1,                       !- Name
  ,                                       !- Space Type Name
  ,                                       !- Default Construction Set Name
  ,                                       !- Default Schedule Set Name
  ,                                       !- Direction of Relative North {deg}
  ,                                       !- X Origin {m}
  ,                                       !- Y Origin {m}
  ,                                       !- Z Origin {m}
  ,                                       !- Building Story Name
  {188e5ee4-1b95-4ba0-831c-ab5da56a82f8}, !- Thermal Zone Name
  ,                                       !- Part of Total Floor Area
  ,                                       !- Design Specification Outdoor Air Object Name
  ,                                       !- Building Unit Name
  356.390921899745;                       !- Volume {m3}

OS:Material,
  {c6e3b46b-5ba1-49f1-96c2-547e77da3c97}, !- Handle
  asphalt or fiberglass shingles,         !- Name
  Rough,                                  !- Roughness
  0.00635,                                !- Thickness {m}
  0.162714,                               !- Conductivity {W/m-K}
  1121.4,                                 !- Density {kg/m3}
  1465.45,                                !- Specific Heat {J/kg-K}
  0.9,                                    !- Thermal Absorptance
  0.85,                                   !- Solar Absorptance