
Version,
  9.2;                                    !- Version Identifier

Timestep,
  4;                                      !- Number of Timesteps per Hour

LifeCycleCost:Parameters,
  Life Cycle Cost Parameters,             !- Name
  EndOfYear,                              !- Discounting Convention
  ConstantDollar,                         !- Inflation Approach
  0.03,                                   !- Real Discount Rate
  ,                                       !- Nominal Discount Rate
  ,                                       !- Inflation
  ,                                       !- Base Date Month
  2011,                                   !- Base Date Year
  ,                                       !- Service Date Month
  2011,                                   !- Service Date Year
  25,                                     !- Length of Study Period in Years
  ,                                       !- Tax rate
  None;                                   !- Depreciation Method

LifeCycleCost:UsePriceEscalation,
  U.S. Avg  Commercial-Electricity,       !- LCC Price Escalation Name
  Electricity,                            !- Resource
  2011,                                   !- Escalation Start Year
  January,                                !- Escalation Start Month
  0.9838,                                 !- Year Escalation 1
  0.9730,                                 !- Year Escalation 2
  0.9632,                                 !- Year Escalation 3
  0.9611,                                 !- Year Escalation 4
  0.9571,                                 !- Year Escalation 5
  0.9553,                                 !- Year Escalation 6
  0.9539,                                 !- Year Escalation 7
  0.9521,                                 !- Year Escalation 8
  0.9546,                                 !- Year Escalation 9
  0.9550,                                 !- Year Escalation 10
  0.9553,                                 !- Year Escalation 11
  0.9564,                                 !- Year Escalation 12
  0.9575,                                 !- Year Escalation 13
  0.9596,                                 !- Year Escalation 14
  0.9618,                                 !- Year Escalation 15
  0.9614,                                 !- Year Escalation 16
  0.9618,                                 !- Year Escalation 17
  0.9618,                                 !- Year Escalation 18
  0.9593,                                 !- Year Escalation 19
  0.9589,                                 !- Year Escalation 20
  0.9607,                                 !- Year Escalation 21
  0.9625,                                 !- Year Escalation 22
  0.9650,                                 !- Year Escalation 23
  0.9708,                                 !- Year Escalation 24
  0.9751,                                 !- Year Escalation 25
  0.9762,                                 !- Year Escalation 26
  0.9766,                                 !- Year Escalation 27
  0.9766,                                 !- Year Escalation 28
  0.9769,                                 !- Year Escalation 29
  0.9773;                                 !- Year Escalation 30

LifeCycleCost:UsePriceEscalation,
  U.S. Avg  Commercial-Distillate Oil,    !- LCC Price Escalation Name
  FuelOil#1,                              !- Resource
  2011,                                   !- Escalation Start Year
  January,                                !- Escalation Start Month
  0.9714,                                 !- Year Escalation 1
  0.9730,                                 !- Year Escalation 2
  0.9942,                                 !- Year Escalation 3
  1.0164,                                 !- Year Escalation 4
  1.0541,                                 !- Year Escalation 5
  1.0928,                                 !- Year Escalation 6
  1.1267,                                 !- Year Escalation 7
  1.1580,                                 !- Year Escalation 8
  1.1792,                                 !- Year Escalation 9
  1.1967,                                 !- Year Escalation 10
  1.2200,                                 !- Year Escalation 11
  1.2333,                                 !- Year Escalation 12
  1.2566,                                 !- Year Escalation 13
  1.2709,                                 !- Year Escalation 14
  1.2826,                                 !- Year Escalation 15
  1.2985,                                 !- Year Escalation 16
  1.3102,                                 !- Year Escalation 17
  1.3250,                                 !- Year Escalation 18
  1.3261,                                 !- Year Escalation 19
  1.3282,                                 !- Year Escalation 20
  1.3324,                                 !- Year Escalation 21
  1.3356,                                 !- Year Escalation 22
  1.3431,                                 !- Year Escalation 23
  1.3510,                                 !- Year Escalation 24
  1.3568,                                 !- Year Escalation 25
  1.3606,                                 !- Year Escalation 26
  1.3637,                                 !- Year Escalation 27
  1.3674,                                 !- Year Escalation 28
  1.3706,                                 !- Year Escalation 29
  1.3743;                                 !- Year Escalation 30

LifeCycleCost:UsePriceEscalation,
  U.S. Avg  Commercial-Residual Oil,      !- LCC Price Escalation Name
  FuelOil#2,                              !- Resource
  2011,                                   !- Escalation Start Year
  January,                                !- Escalation Start Month
  0.8469,                                 !- Year Escalation 1
  0.8257,                                 !- Year Escalation 2
  0.8681,                                 !- Year Escalation 3
  0.8988,                                 !- Year Escalation 4
  0.9289,                                 !- Year Escalation 5
  0.9604,                                 !- Year Escalation 6
  0.9897,                                 !- Year Escalation 7
  1.0075,                                 !- Year Escalation 8
  1.0314,                                 !- Year Escalation 9
  1.0554,                                 !- Year Escalation 10
  1.0861,                                 !- Year Escalation 11
  1.1278,                                 !- Year Escalation 12
  1.1497,                                 !- Year Escalation 13
  1.1620,                                 !- Year Escalation 14
  1.1743,                                 !- Year Escalation 15
  1.1852,                                 !- Year Escalation 16
  1.1948,                                 !- Year Escalation 17
  1.2037,                                 !- Year Escalation 18
  1.2071,                                 !- Year Escalation 19
  1.2119,                                 !- Year Escalation 20
  1.2139,                                 !- Year Escalation 21
  1.2194,                                 !- Year Escalation 22
  1.2276,                                 !- Year Escalation 23
  1.2365,                                 !- Year Escalation 24
  1.2420,                                 !- Year Escalation 25
  1.2461,                                 !- Year Escalation 26
  1.2509,                                 !- Year Escalation 27
  1.2550,                                 !- Year Escalation 28
  1.2591,                                 !- Year Escalation 29
  1.2638;                                 !- Year Escalation 30

LifeCycleCost:UsePriceEscalation,
  U.S. Avg  Commercial-Natural gas,       !- LCC Price Escalation Name
  NaturalGas,                             !- Resource
  2011,                                   !- Escalation Start Year
  January,                                !- Escalation Start Month
  0.9823,                                 !- Year Escalation 1
  0.9557,                                 !- Year Escalation 2
  0.9279,                                 !- Year Escalation 3
  0.9257,                                 !- Year Escalation 4
  0.9346,                                 !- Year Escalation 5
  0.9412,                                 !- Year Escalation 6
  0.9512,                                 !- Year Escalation 7
  0.9645,                                 !- Year Escalation 8
  0.9856,                                 !- Year Escalation 9
  1.0067,                                 !- Year Escalation 10
  1.0222,                                 !- Year Escalation 11
  1.0410,                                 !- Year Escalation 12
  1.0610,                                 !- Year Escalation 13
  1.0787,                                 !- Year Escalation 14
  1.0942,                                 !- Year Escalation 15
  1.1098,                                 !- Year Escalation 16
  1.1220,                                 !- Year Escalation 17
  1.1308,                                 !- Year Escalation 18
  1.1386,                                 !- Year Escalation 19
  1.1486,                                 !- Year Escalation 20
  1.1619,                                 !- Year Escalation 21
  1.1763,                                 !- Year Escalation 22
  1.1918,                                 !- Year Escalation 23
  1.2118,                                 !- Year Escalation 24
  1.2284,                                 !- Year Escalation 25
  1.2439,                                 !- Year Escalation 26
  1.2605,                                 !- Year Escalation 27
  1.2772,                                 !- Year Escalation 28
  1.2938,                                 !- Year Escalation 29
  1.3115;                                 !- Year Escalation 30

LifeCycleCost:UsePriceEscalation,
  U.S. Avg  Commercial-Coal,              !- LCC Price Escalation Name
  Coal,                                   !- Resource
  2011,                                   !- Escalation Start Year
  January,                                !- Escalation Start Month
  0.9970,                                 !- Year Escalation 1
  1.0089,                                 !- Year Escalation 2
  1.0089,                                 !- Year Escalation 3
  0.9941,                                 !- Year Escalation 4
  0.9941,                                 !- Year Escalation 5
  1.0000,                                 !- Year Escalation 6
  1.0030,                                 !- Year Escalation 7
  1.0059,                                 !- Year Escalation 8
  1.0089,                                 !- Year Escalation 9
  1.0119,                                 !- Year Escalation 10
  1.0148,                                 !- Year Escalation 11
  1.0178,                                 !- Year Escalation 12
  1.0208,                                 !- Year Escalation 13
  1.0267,                                 !- Year Escalation 14
  1.0297,                                 !- Year Escalation 15
  1.0356,                                 !- Year Escalation 16
  1.0415,                                 !- Year Escalation 17
  1.0534,                                 !- Year Escalation 18
  1.0564,                                 !- Year Escalation 19
  1.0593,                                 !- Year Escalation 20
  1.0653,                                 !- Year Escalation 21
  1.0712,                                 !- Year Escalation 22
  1.0742,                                 !- Year Escalation 23
  1.0801,                                 !- Year Escalation 24
  1.0831,                                 !- Year Escalation 25
  1.0831,                                 !- Year Escalation 26
  1.0861,                                 !- Year Escalation 27
  1.0890,                                 !- Year Escalation 28
  1.0920,                                 !- Year Escalation 29
  1.0950;                                 !- Year Escalation 30

Building,
  Mixed_use 1,                            !- Name
  ,                                       !- North Axis {deg}
  City,                                   !- Terrain
  ,                                       !- Loads Convergence Tolerance Value
  ,                                       !- Temperature Convergence Tolerance Value {deltaC}
  ,                                       !- Solar Distribution
  ,                                       !- Maximum Number of Warmup Days
  ;                                       !- Minimum Number of Warmup Days

Shading:Building:Detailed,
  Shading Surface 31,                     !- Name
  ,                                       !- Transmittance Schedule Name
  ,                                       !- Number of Vertices
  -167.622727116011, 300.328384963492, 30, !- X,Y,Z Vertex 1 {m}
  -167.622727116011, 300.328384963492, 0, !- X,Y,Z Vertex 2 {m}
  -208.088510285137, 286.501420823314, 0, !- X,Y,Z Vertex 3 {m}
  -208.088510285137, 286.501420823314, 30; !- X,Y,Z Vertex 4 {m}

Shading:Building:Detailed,
  Shading Surface 32,                     !- Name
  ,                                       !- Transmittance Schedule Name
  ,                                       !- Number of Vertices
  -208.088510285137, 286.501420823314, 30, !- X,Y,Z Vertex 1 {m}
  -208.088510285137, 286.501420823314, 0, !- X,Y,Z Vertex 2 {m}
  -215.965111150519, 310.380257477627, 0, !- X,Y,Z Vertex 3 {m}
  -215.965111150519, 310.380257477627, 30; !- X,Y,Z Vertex 4 {m}

Shading:Building:Detailed,
  Shading Surface 33,                     !- Name
  ,                                       !- Transmittance Schedule Name
  ,                                       !- Number of Vertices
  -238.367567073254, 303.044015317563, 30, !- X,Y,Z Vertex 1 {m}
  -238.367567073254, 303.044015317563, 0, !- X,Y,Z Vertex 2 {m}
  -214.901743269802, 233.654187188968, 0, !- X,Y,Z Vertex 3 {m}
  -214.901743269802, 233.654187188968, 30; !- X,Y,Z Vertex 4 {m}

Shading:Building:Detailed,
  Shading Surface 34,                     !- Name
  ,                                       !- Transmittance Schedule Name
  ,                                       !- Number of Vertices
  -215.965111150519, 310.380257477627, 30, !- X,Y,Z Vertex 1 {m}
  -215.965111150519, 310.380257477627, 0, !- X,Y,Z Vertex 2 {m}
  -238.367567073254, 303.044015317563, 0, !- X,Y,Z Vertex 3 {m}
  -238.367567073254, 303.044015317563, 30; !- X,Y,Z Vertex 4 {m}

Shading:Building:Detailed,
  Shading Surface 35,                     !- Name
  ,                                       !- Transmittance Schedule Name
  ,                                       !- Number of Vertices
  -153.075046717568, 254.476490746145, 30, !- X,Y,Z Vertex 1 {m}
  -153.075046717568, 254.476490746145, 0, !- X,Y,Z Vertex 2 {m}
  -167.622727116011, 300.328384963492, 0, !- X,Y,Z Vertex 3 {m}
  -167.622727116011, 300.328384963492, 30; !- X,Y,Z Vertex 4 {m}

Shading:Building:Detailed,
  Shading Surface 36,                     !- Name
  ,                                       !- Transmittance Schedule Name
  ,                                       !- Number of Vertices
  -214.901743269802, 233.654187188968, 30, !- X,Y,Z Vertex 1 {m}
  -214.901743269802, 233.654187188968, 0, !- X,Y,Z Vertex 2 {m}
  -153.075046717568, 254.476490746145, 0, !- X,Y,Z Vertex 3 {m}
  -153.075046717568, 254.476490746145, 30; !- X,Y,Z Vertex 4 {m}

Shading:Building:Detailed,
  Shading Surface 37,                     !- Name
  ,                                       !- Transmittance Schedule Name
  ,                                       !- Number of Vertices
  -214.901743269802, 233.654187188968, 0, !- X,Y,Z Vertex 1 {m}
  -238.367567073254, 303.044015317563, 0, !- X,Y,Z Vertex 2 {m}
  -215.965111150519, 310.380257477627, 0, !- X,Y,Z Vertex 3 {m}
  -208.088510285137, 286.501420823314, 0, !- X,Y,Z Vertex 4 {m}
  -167.622727116011, 300.328384963492, 0, !- X,Y,Z Vertex 5 {m}
  -153.075046717568, 254.476490746145, 0; !- X,Y,Z Vertex 6 {m}

Shading:Building:Detailed,
  Shading Surface 38,                     !- Name
  ,                                       !- Transmittance Schedule Name
  ,                                       !- Number of Vertices
  -153.075046717568, 254.476490746145, 30, !- X,Y,Z Vertex 1 {m}
  -167.622727116011, 300.328384963492, 30, !- X,Y,Z Vertex 2 {m}
  -208.088510285137, 286.501420823314, 30, !- X,Y,Z Vertex 3 {m}
  -215.965111150519, 310.380257477627, 30, !- X,Y,Z Vertex 4 {m}
  -238.367567073254, 303.044015317563, 30, !- X,Y,Z Vertex 5 {m}
  -214.901743269802, 233.654187188968, 30; !- X,Y,Z Vertex 6 {m}

Shading:Building:Detailed,
  Shading Surface 39,                     !- Name
  ,                                       !- Transmittance Schedule Name
  ,                                       !- Number of Vertices
  -282.426898896389, 436.574559243559, 9, !- X,Y,Z Vertex 1 {m}
  -282.426898896389, 436.574559243559, 0, !- X,Y,Z Vertex 2 {m}
  -242.758988259531, 316.982338394441, 0, !- X,Y,Z Vertex 3 {m}
  -242.758988259531, 316.982338394441, 9; !- X,Y,Z Vertex 4 {m}

Shading:Building:Detailed,
  Shading Surface 40,                     !- Name
  ,                                       !- Transmittance Schedule Name
  ,                                       !- Number of Vertices
  -125.40292152102, 401.942518723438, 9,  !- X,Y,Z Vertex 1 {m}
  -125.40292152102, 401.942518723438, 0,  !- X,Y,Z Vertex 2 {m}
  -140.025338800983, 446.043300050158, 0, !- X,Y,Z Vertex 3 {m}
  -140.025338800983, 446.043300050158, 9; !- X,Y,Z Vertex 4 {m}

Shading:Building:Detailed,
  Shading Surface 41,                     !- Name
  ,                                       !- Transmittance Schedule Name
  ,                                       !- Number of Vertices
  -233.754035044188, 415.190842470124, 0, !- X,Y,Z Vertex 1 {m}
  -140.025338800983, 446.043300050158, 0, !- X,Y,Z Vertex 2 {m}
  -125.40292152102, 401.942518723438, 0,  !- X,Y,Z Vertex 3 {m}
  -233.71232977424, 366.290436024628, 0,  !- X,Y,Z Vertex 4 {m}
  -220.195597772674, 324.685330128454, 0, !- X,Y,Z Vertex 5 {m}
  -242.758988259531, 316.982338394441, 0, !- X,Y,Z Vertex 6 {m}
  -282.426898896389, 436.574559243559, 0, !- X,Y,Z Vertex 7 {m}
  -244.414633866032, 449.086500888913, 0; !- X,Y,Z Vertex 8 {m}

Shading:Building:Detailed,
  Shading Surface 42,                     !- Name
  ,                                       !- Transmittance Schedule Name
  ,                                       !- Number of Vertices
  -233.71232977424, 366.290436024628, 9,  !- X,Y,Z Vertex 1 {m}
  -233.71232977424, 366.290436024628, 0,  !- X,Y,Z Vertex 2 {m}
  -125.40292152102, 401.942518723438, 0,  !- X,Y,Z Vertex 3 {m}
  -125.40292152102, 401.942518723438, 9;  !- X,Y,Z Vertex 4 {m}

Shading:Building:Detailed,
  Shading Surface 43,                     !- Name
  ,                                       !- Transmittance Schedule Name
  ,                                       !- Number of Vertices
  -242.758988259531, 316.982338394441, 9, !- X,Y,Z Vertex 1 {m}
  -242.758988259531, 316.982338394441, 0, !- X,Y,Z Vertex 2 {m}
  -220.195597772674, 324.685330128454, 0, !- X,Y,Z Vertex 3 {m}
  -220.195597772674, 324.685330128454, 9; !- X,Y,Z Vertex 4 {m}

Shading:Building:Detailed,
  Shading Surface 44,                     !- Name
  ,                                       !- Transmittance Schedule Name
  ,                                       !- Number of Vertices
  -244.414633866032, 449.086500888913, 9, !- X,Y,Z Vertex 1 {m}
  -244.414633866032, 449.086500888913, 0, !- X,Y,Z Vertex 2 {m}
  -282.426898896389, 436.574559243559, 0, !- X,Y,Z Vertex 3 {m}
  -282.426898896389, 436.574559243559, 9; !- X,Y,Z Vertex 4 {m}

Shading:Building:Detailed,
  Shading Surface 45,                     !- Name
  ,                                       !- Transmittance Schedule Name
  ,                                       !- Number of Vertices
  -233.754035044188, 415.190842470124, 9, !- X,Y,Z Vertex 1 {m}
  -233.754035044188, 415.190842470124, 0, !- X,Y,Z Vertex 2 {m}
  -244.414633866032, 449.086500888913, 0, !- X,Y,Z Vertex 3 {m}
  -244.414633866032, 449.086500888913, 9; !- X,Y,Z Vertex 4 {m}

Shading:Building:Detailed,
  Shading Surface 46,                     !- Name
  ,                                       !- Transmittance Schedule Name
  ,                                       !- Number of Vertices
  -244.414633866032, 449.086500888913, 9, !- X,Y,Z Vertex 1 {m}
  -282.426898896389, 436.574559243559, 9, !- X,Y,Z Vertex 2 {m}
  -242.758988259531, 316.982338394441, 9, !- X,Y,Z Vertex 3 {m}
  -220.195597772674, 324.685330128454, 9, !- X,Y,Z Vertex 4 {m}
  -233.71232977424, 366.290436024628, 9,  !- X,Y,Z Vertex 5 {m}
  -125.40292152102, 401.942518723438, 9,  !- X,Y,Z Vertex 6 {m}
  -140.025338800983, 446.043300050158, 9, !- X,Y,Z Vertex 7 {m}
  -233.754035044188, 415.190842470124, 9; !- X,Y,Z Vertex 8 {m}

Shading:Building:Detailed,
  Shading Surface 47,                     !- Name
  ,                                       !- Transmittance Schedule Name
  ,                                       !- Number of Vertices
  -220.195597772674, 324.685330128454, 9, !- X,Y,Z Vertex 1 {m}
  -220.195597772674, 324.685330128454, 0, !- X,Y,Z Vertex 2 {m}
  -233.71232977424, 366.290436024628, 0,  !- X,Y,Z Vertex 3 {m}
  -233.71232977424, 366.290436024628, 9;  !- X,Y,Z Vertex 4 {m}

Shading:Building:Detailed,
  Shading Surface 48,                     !- Name
  ,                                       !- Transmittance Schedule Name
  ,                                       !- Number of Vertices
  -140.025338800983, 446.043300050158, 9, !- X,Y,Z Vertex 1 {m}
  -140.025338800983, 446.043300050158, 0, !- X,Y,Z Vertex 2 {m}
  -233.754035044188, 415.190842470124, 0, !- X,Y,Z Vertex 3 {m}
  -233.754035044188, 415.190842470124, 9; !- X,Y,Z Vertex 4 {m}

Shading:Building:Detailed,
  Shading Surface 25,                     !- Name
  ,                                       !- Transmittance Schedule Name
  ,                                       !- Number of Vertices
  58.5206626101495, 321.901619042728, 18, !- X,Y,Z Vertex 1 {m}
  58.5206626101495, 321.901619042728, 0,  !- X,Y,Z Vertex 2 {m}
  43.2794933138034, 368.10108597188, 0,   !- X,Y,Z Vertex 3 {m}
  43.2794933138034, 368.10108597188, 18;  !- X,Y,Z Vertex 4 {m}

Shading:Building:Detailed,
  Shading Surface 26,                     !- Name
  ,                                       !- Transmittance Schedule Name
  ,                                       !- Number of Vertices
  43.2794933138034, 368.10108597188, 18,  !- X,Y,Z Vertex 1 {m}
  -55.1854341838323, 335.852793632616, 18, !- X,Y,Z Vertex 2 {m}
  -39.9448534060145, 289.652894508108, 18, !- X,Y,Z Vertex 3 {m}
  58.5206626101495, 321.901619042728, 18; !- X,Y,Z Vertex 4 {m}

Shading:Building:Detailed,
  Shading Surface 27,                     !- Name
  ,                                       !- Transmittance Schedule Name
  ,                                       !- Number of Vertices
  -39.9448534060145, 289.652894508108, 18, !- X,Y,Z Vertex 1 {m}
  -39.9448534060145, 289.652894508108, 0, !- X,Y,Z Vertex 2 {m}
  58.5206626101495, 321.901619042728, 0,  !- X,Y,Z Vertex 3 {m}
  58.5206626101495, 321.901619042728, 18; !- X,Y,Z Vertex 4 {m}

Shading:Building:Detailed,
  Shading Surface 28,                     !- Name
  ,                                       !- Transmittance Schedule Name
  ,                                       !- Number of Vertices
  -55.1854341838323, 335.852793632616, 18, !- X,Y,Z Vertex 1 {m}
  -55.1854341838323, 335.852793632616, 0, !- X,Y,Z Vertex 2 {m}
  -39.9448534060145, 289.652894508108, 0, !- X,Y,Z Vertex 3 {m}
  -39.9448534060145, 289.652894508108, 18; !- X,Y,Z Vertex 4 {m}

Shading:Building:Detailed,
  Shading Surface 29,                     !- Name
  ,                                       !- Transmittance Schedule Name
  ,                                       !- Number of Vertices
  43.2794933138034, 368.10108597188, 18,  !- X,Y,Z Vertex 1 {m}
  43.2794933138034, 368.10108597188, 0,   !- X,Y,Z Vertex 2 {m}
  -55.1854341838323, 335.852793632616, 0, !- X,Y,Z Vertex 3 {m}
  -55.1854341838323, 335.852793632616, 18; !- X,Y,Z Vertex 4 {m}

Shading:Building:Detailed,
  Shading Surface 30,                     !- Name
  ,                                       !- Transmittance Schedule Name
  ,                                       !- Number of Vertices
  58.5206626101495, 321.901619042728, 0,  !- X,Y,Z Vertex 1 {m}
  -39.9448534060145, 289.652894508108, 0, !- X,Y,Z Vertex 2 {m}
  -55.1854341838323, 335.852793632616, 0, !- X,Y,Z Vertex 3 {m}
  43.2794933138034, 368.10108597188, 0;   !- X,Y,Z Vertex 4 {m}

Shading:Building:Detailed,
  Shading Surface 1,                      !- Name
  ,                                       !- Transmittance Schedule Name
  ,                                       !- Number of Vertices
  -160.682882458955, 156.624158241952, 9, !- X,Y,Z Vertex 1 {m}
  -160.682882458955, 156.624158241952, 0, !- X,Y,Z Vertex 2 {m}
  -187.174599957472, 147.948560435976, 0, !- X,Y,Z Vertex 3 {m}
  -187.174599957472, 147.948560435976, 9; !- X,Y,Z Vertex 4 {m}

Shading:Building:Detailed,
  Shading Surface 2,                      !- Name
  ,                                       !- Transmittance Schedule Name
  ,                                       !- Number of Vertices
  -116.985082377693, 24.1539237727571, 9, !- X,Y,Z Vertex 1 {m}
  -116.985082377693, 24.1539237727571, 0, !- X,Y,Z Vertex 2 {m}
  -160.682882458955, 156.624158241952, 0, !- X,Y,Z Vertex 3 {m}
  -160.682882458955, 156.624158241952, 9; !- X,Y,Z Vertex 4 {m}

Shading:Building:Detailed,
  Shading Surface 3,                      !- Name
  ,                                       !- Transmittance Schedule Name
  ,                                       !- Number of Vertices
  -160.682882458955, 156.624158241952, 9, !- X,Y,Z Vertex 1 {m}
  -187.174599957472, 147.948560435976, 9, !- X,Y,Z Vertex 2 {m}
  -143.477253856789, 15.4779925898111, 9, !- X,Y,Z Vertex 3 {m}
  -116.985082377693, 24.1539237727571, 9; !- X,Y,Z Vertex 4 {m}

Shading:Building:Detailed,
  Shading Surface 4,                      !- Name
  ,                                       !- Transmittance Schedule Name
  ,                                       !- Number of Vertices
  -187.174599957472, 147.948560435976, 9, !- X,Y,Z Vertex 1 {m}
  -187.174599957472, 147.948560435976, 0, !- X,Y,Z Vertex 2 {m}
  -143.477253856789, 15.4779925898111, 0, !- X,Y,Z Vertex 3 {m}
  -143.477253856789, 15.4779925898111, 9; !- X,Y,Z Vertex 4 {m}

Shading:Building:Detailed,
  Shading Surface 5,                      !- Name
  ,                                       !- Transmittance Schedule Name
  ,                                       !- Number of Vertices
  -143.477253856789, 15.4779925898111, 9, !- X,Y,Z Vertex 1 {m}
  -143.477253856789, 15.4779925898111, 0, !- X,Y,Z Vertex 2 {m}
  -116.985082377693, 24.1539237727571, 0, !- X,Y,Z Vertex 3 {m}
  -116.985082377693, 24.1539237727571, 9; !- X,Y,Z Vertex 4 {m}

Shading:Building:Detailed,
  Shading Surface 6,                      !- Name
  ,                                       !- Transmittance Schedule Name
  ,                                       !- Number of Vertices
  -116.985082377693, 24.1539237727571, 0, !- X,Y,Z Vertex 1 {m}
  -143.477253856789, 15.4779925898111, 0, !- X,Y,Z Vertex 2 {m}
  -187.174599957472, 147.948560435976, 0, !- X,Y,Z Vertex 3 {m}
  -160.682882458955, 156.624158241952, 0; !- X,Y,Z Vertex 4 {m}

Shading:Building:Detailed,
  Shading Surface 10,                     !- Name
  ,                                       !- Transmittance Schedule Name
  ,                                       !- Number of Vertices
  -106.447943436246, 54.294019954428, 9,  !- X,Y,Z Vertex 1 {m}
  -106.447943436246, 54.294019954428, 0,  !- X,Y,Z Vertex 2 {m}
  -98.5706706696188, 30.4144279270294, 0, !- X,Y,Z Vertex 3 {m}
  -98.5706706696188, 30.4144279270294, 9; !- X,Y,Z Vertex 4 {m}

Shading:Building:Detailed,
  Shading Surface 11,                     !- Name
  ,                                       !- Transmittance Schedule Name
  ,                                       !- Number of Vertices
  -61.5793776580203, 42.5290185105942, 9, !- X,Y,Z Vertex 1 {m}
  -61.5793776580203, 42.5290185105942, 0, !- X,Y,Z Vertex 2 {m}
  -69.4567646929614, 66.408526626272, 0,  !- X,Y,Z Vertex 3 {m}
  -69.4567646929614, 66.408526626272, 9;  !- X,Y,Z Vertex 4 {m}

Shading:Building:Detailed,
  Shading Surface 12,                     !- Name
  ,                                       !- Transmittance Schedule Name
  ,                                       !- Number of Vertices
  -69.4567646929614, 66.408526626272, 9,  !- X,Y,Z Vertex 1 {m}
  -106.447943436246, 54.294019954428, 9,  !- X,Y,Z Vertex 2 {m}
  -98.5706706696188, 30.4144279270294, 9, !- X,Y,Z Vertex 3 {m}
  -61.5793776580203, 42.5290185105942, 9; !- X,Y,Z Vertex 4 {m}

Shading:Building:Detailed,
  Shading Surface 7,                      !- Name
  ,                                       !- Transmittance Schedule Name
  ,                                       !- Number of Vertices
  -98.5706706696188, 30.4144279270294, 9, !- X,Y,Z Vertex 1 {m}
  -98.5706706696188, 30.4144279270294, 0, !- X,Y,Z Vertex 2 {m}
  -61.5793776580203, 42.5290185105942, 0, !- X,Y,Z Vertex 3 {m}
  -61.5793776580203, 42.5290185105942, 9; !- X,Y,Z Vertex 4 {m}

Shading:Building:Detailed,
  Shading Surface 8,                      !- Name
  ,                                       !- Transmittance Schedule Name
  ,                                       !- Number of Vertices
  -69.4567646929614, 66.408526626272, 9,  !- X,Y,Z Vertex 1 {m}
  -69.4567646929614, 66.408526626272, 0,  !- X,Y,Z Vertex 2 {m}
  -106.447943436246, 54.294019954428, 0,  !- X,Y,Z Vertex 3 {m}
  -106.447943436246, 54.294019954428, 9;  !- X,Y,Z Vertex 4 {m}

Shading:Building:Detailed,
  Shading Surface 9,                      !- Name