
OS:Version,
  {c931818c-5e18-4d1d-8e3d-f2321954f942}, !- Handle
  3.9.0;                                  !- Version Identifier

OS:SimulationControl,
  {362af51b-2fb8-443d-8c8c-dd015eade14a}, !- Handle
  ,                                       !- Do Zone Sizing Calculation
  ,                                       !- Do System Sizing Calculation
  ,                                       !- Do Plant Sizing Calculation
  No;                                     !- Run Simulation for Sizing Periods

OS:Timestep,
  {1fee187a-fe7d-46fb-a2b2-19df7bd47e07}, !- Handle
  1;                                      !- Number of Timesteps per Hour

OS:ShadowCalculation,
  {283b6db9-3c03-4388-8179-4d01e0ed1aa7}, !- Handle
  PolygonClipping,                        !- Shading Calculation Method
  ,                                       !- Shading Calculation Update Frequency Method
  20,                                     !- Shading Calculation Update Frequency
  200,                                    !- Maximum Figures in Shadow Overlap Calculations
  ,                                       !- Polygon Clipping Algorithm
  512,                                    !- Pixel Counting Resolution
  ,                                       !- Sky Diffuse Modeling Algorithm
  No,                                     !- Output External Shading Calculation Results
  No,                                     !- Disable Self-Shading Within Shading Zone Groups
  No;                                     !- Disable Self-Shading From Shading Zone Groups to Other Zones

OS:SurfaceConvectionAlgorithm:Outside,
  {666358cb-b417-4d34-82b8-7377035146fe}, !- Handle
  DOE-2;                                  !- Algorithm

OS:SurfaceConvectionAlgorithm:Inside,
  {d616fae4-a709-4bd1-ac46-96414026dcd2}, !- Handle
  TARP;                                   !- Algorithm

OS:ZoneCapacitanceMultiplier:ResearchSpecial,
  {71b663aa-2a02-4964-aed9-d7f52fa8f72b}, !- Handle
  7,                                      !- Temperature Capacity Multiplier
  15,                                     !- Humidity Capacity Multiplier
  ;                                       !- Carbon Dioxide Capacity Multiplier

OS:ConvergenceLimits,
  {211f25f6-f6a7-4a46-8a4c-509291b8133a}, !- Handle
  0;                                      !- Minimum System Timestep {minutes}

OS:RunPeriod,
  {b8d1b58f-808c-4356-96d0-57100682b46d}, !- Handle
  Run Period 1,                           !- Name
  1,                                      !- Begin Month
  1,                                      !- Begin Day of Month
  12,                                     !- End Month
  31,                                     !- End Day of Month
  ,                                       !- Use Weather File Holidays and Special Days
  ,                                       !- Use Weather File Daylight Saving Period
  ,                                       !- Apply Weekend Holiday Rule
  ,                                       !- Use Weather File Rain Indicators
  ,                                       !- Use Weather File Snow Indicators
  ;                                       !- Number of Times Runperiod to be Repeated

OS:PerformancePrecisionTradeoffs,
  {e9bd8144-3d85-4b90-a6c3-ab1dedacf90d}, !- Handle
  ,                                       !- Use Coil Direct Solutions
  CarrollMRT;                             !- Zone Radiant Exchange Algorithm

OS:WeatherFile,
  {2f0c8b60-d257-4f86-9138-673eb5f920c6}, !- Handle
  Buffalo Niagara Intl Ap,                !- City
  NY,                                     !- State Province Region
  USA,                                    !- Country
  TMY3,                                   !- Data Source
  725280,                                 !- WMO Number
  42.93,                                  !- Latitude {deg}
  -78.73,                                 !- Longitude {deg}
  -5,                                     !- Time Zone {hr}
  215,                                    !- Elevation {m}
  /Users/nmoore/github/urbanopt-example-geojson-project/example_project/weather/USA_NY_Buffalo-Greater.Buffalo.Intl.AP.725280_TMY3.epw, !- Url
  6B50E0FF,                               !- Checksum
  ,                                       !- Start Date Actual Year
  Sunday;                                 !- Start Day of Week

OS:YearDescription,
  {22647d3f-a361-4cad-b2a0-911b0809b453}, !- Handle
  2007,                                   !- Calendar Year
  ,                                       !- Day of Week for Start Day
  ;                                       !- Is Leap Year

OS:Site,
  {e9a27a24-0807-44c0-8a02-559934eba31a}, !- Handle
  Buffalo Niagara Intl Ap_NY,             !- Name
  42.93,                                  !- Latitude {deg}
  -78.73,                                 !- Longitude {deg}
  -5,                                     !- Time Zone {hr}
  215,                                    !- Elevation {m}
  Suburbs,                                !- Terrain
  Yes;                                    !- Keep Site Location Information

OS:RunPeriodControl:DaylightSavingTime,
  {4c3ef990-14f4-462f-885f-7cc0b618f6d4}, !- Handle
  Mar 12,                                 !- Start Date
  Nov 5;                                  !- End Date

OS:Site:GroundTemperature:Shallow,
  {48746335-a64a-4acf-98d1-3a4ff7bd9c5c}, !- Handle
  4.30207395723828,                       !- January Surface Ground Temperature {C}
  2.29327249652502,                       !- February Surface Ground Temperature {C}
  2.13240047156047,                       !- March Surface Ground Temperature {C}
  3.08567940719286,                       !- April Surface Ground Temperature {C}
  6.91256312497526,                       !- May Surface Ground Temperature {C}
  10.7216195949507,                       !- June Surface Ground Temperature {C}
  14.0238679822574,                       !- July Surface Ground Temperature {C}
  16.1157611184724,                       !- August Surface Ground Temperature {C}
  16.2934789303462,                       !- September Surface Ground Temperature {C}
  14.5920754632847,                       !- October Surface Ground Temperature {C}
  11.374036348653,                        !- November Surface Ground Temperature {C}
  7.68182621661674;                       !- December Surface Ground Temperature {C}

OS:Site:GroundTemperature:Deep,
  {c7e045aa-bbce-4514-8b2a-b68d13c4e98d}, !- Handle
  10,                                     !- January Deep Ground Temperature {C}
  10,                                     !- February Deep Ground Temperature {C}
  10,                                     !- March Deep Ground Temperature {C}
  10,                                     !- April Deep Ground Temperature {C}
  10,                                     !- May Deep Ground Temperature {C}
  10,                                     !- June Deep Ground Temperature {C}
  10,                                     !- July Deep Ground Temperature {C}
  10,                                     !- August Deep Ground Temperature {C}
  10,                                     !- September Deep Ground Temperature {C}
  10,                                     !- October Deep Ground Temperature {C}
  10,                                     !- November Deep Ground Temperature {C}
  10;                                     !- December Deep Ground Temperature {C}

OS:ThermalZone,
  {65afcce4-b2e4-4e8d-b2d6-53c6a0806b91}, !- Handle
  conditioned space,                      !- Name
  1,                                      !- Multiplier
  ,                                       !- Ceiling Height {m}
  692.06373070848,                        !- Volume {m3}
  ,                                       !- Floor Area {m2}
  ,                                       !- Zone Inside Convection Algorithm
  ,                                       !- Zone Outside Convection Algorithm
  ,                                       !- Zone Conditioning Equipment List Name
  {f09b71ab-9832-4a26-ac73-3ee59a737ac0}, !- Zone Air Inlet Port List
  {1e0fc5ae-580a-4d72-a757-95b181b4431b}, !- Zone Air Exhaust Port List
  {816b6b4f-a9a2-4417-a221-60b8ec4357e8}, !- Zone Air Node Name
  {a6a3caa4-8104-4b62-b99a-cee52b9b8ee6}, !- Zone Return Air Port List
  ,                                       !- Primary Daylighting Control Name
  ,                                       !- Fraction of Zone Controlled by Primary Daylighting Control
  ,                                       !- Secondary Daylighting Control Name
  ,                                       !- Fraction of Zone Controlled by Secondary Daylighting Control
  ,                                       !- Illuminance Map Name
  ,                                       !- Group Rendering Name
  {080d94d7-22c7-4c69-9320-1d3fadc7c5fc}, !- Thermostat Name
  No;                                     !- Use Ideal Air Loads

OS:Node,
  {f5c7be85-2039-46e2-b3fb-39c9370622f7}, !- Handle
  Node 1,                                 !- Name
  {816b6b4f-a9a2-4417-a221-60b8ec4357e8}, !- Inlet Port
  ;                                       !- Outlet Port

OS:Connection,
  {816b6b4f-a9a2-4417-a221-60b8ec4357e8}, !- Handle
  {65afcce4-b2e4-4e8d-b2d6-53c6a0806b91}, !- Source Object
  11,                                     !- Outlet Port
  {f5c7be85-2039-46e2-b3fb-39c9370622f7}, !- Target Object
  2;                                      !- Inlet Port

OS:PortList,
  {f09b71ab-9832-4a26-ac73-3ee59a737ac0}, !- Handle
  {65afcce4-b2e4-4e8d-b2d6-53c6a0806b91}, !- HVAC Component
  {e68c9d36-1fd9-41af-906c-2ea5ab62bf21}; !- Port 1

OS:PortList,
  {1e0fc5ae-580a-4d72-a757-95b181b4431b}, !- Handle
  {65afcce4-b2e4-4e8d-b2d6-53c6a0806b91}; !- HVAC Component

OS:PortList,
  {a6a3caa4-8104-4b62-b99a-cee52b9b8ee6}, !- Handle
  {65afcce4-b2e4-4e8d-b2d6-53c6a0806b91}, !- HVAC Component
  {4fcebb18-5cf9-4262-9b10-b3dd650eef89}; !- Port 1

OS:Sizing:Zone,
  {d40c773b-b7a2-4799-a606-60a9e90dbf33}, !- Handle
  {65afcce4-b2e4-4e8d-b2d6-53c6a0806b91}, !- Zone or ZoneList Name
  SupplyAirTemperature,                   !- Zone Cooling Design Supply Air Temperature Input Method
  14,                                     !- Zone Cooling Design Supply Air Temperature {C}
  11.11,                                  !- Zone Cooling Design Supply Air Temperature Difference {deltaC}
  SupplyAirTemperature,                   !- Zone Heating Design Supply Air Temperature Input Method
  40,                                     !- Zone Heating Design Supply Air Temperature {C}
  11.11,                                  !- Zone Heating Design Supply Air Temperature Difference {deltaC}
  0.0085,                                 !- Zone Cooling Design Supply Air Humidity Ratio {kg-H2O/kg-air}
  0.008,                                  !- Zone Heating Design Supply Air Humidity Ratio {kg-H2O/kg-air}
  ,                                       !- Zone Heating Sizing Factor
  ,                                       !- Zone Cooling Sizing Factor
  DesignDay,                              !- Cooling Design Air Flow Method
  ,                                       !- Cooling Design Air Flow Rate {m3/s}
  ,                                       !- Cooling Minimum Air Flow per Zone Floor Area {m3/s-m2}
  ,                                       !- Cooling Minimum Air Flow {m3/s}
  ,                                       !- Cooling Minimum Air Flow Fraction
  DesignDay,                              !- Heating Design Air Flow Method
  ,                                       !- Heating Design Air Flow Rate {m3/s}
  ,                                       !- Heating Maximum Air Flow per Zone Floor Area {m3/s-m2}
  ,                                       !- Heating Maximum Air Flow {m3/s}
  ,                                       !- Heating Maximum Air Flow Fraction
  No,                                     !- Account for Dedicated Outdoor Air System
  NeutralSupplyAir,                       !- Dedicated Outdoor Air System Control Strategy
  autosize,                               !- Dedicated Outdoor Air Low Setpoint Temperature for Design {C}
  autosize,                               !- Dedicated Outdoor Air High Setpoint Temperature for Design {C}
  Sensible Load Only No Latent Load,      !- Zone Load Sizing Method
  HumidityRatioDifference,                !- Zone Latent Cooling Design Supply Air Humidity Ratio Input Method
  ,                                       !- Zone Dehumidification Design Supply Air Humidity Ratio {kgWater/kgDryAir}
  0.005,                                  !- Zone Cooling Design Supply Air Humidity Ratio Difference {kgWater/kgDryAir}
  HumidityRatioDifference,                !- Zone Latent Heating Design Supply Air Humidity Ratio Input Method
  ,                                       !- Zone Humidification Design Supply Air Humidity Ratio {kgWater/kgDryAir}
  0.005,                                  !- Zone Humidification Design Supply Air Humidity Ratio Difference {kgWater/kgDryAir}
  ,                                       !- Zone Humidistat Dehumidification Set Point Schedule Name
  ,                                       !- Zone Humidistat Humidification Set Point Schedule Name
  ,                                       !- Design Zone Air Distribution Effectiveness in Cooling Mode
  ,                                       !- Design Zone Air Distribution Effectiveness in Heating Mode
  ,                                       !- Design Zone Secondary Recirculation Fraction {dimensionless}
  ,                                       !- Design Minimum Zone Ventilation Efficiency {dimensionless}
  Coincident;                             !- Sizing Option

OS:ZoneHVAC:EquipmentList,
  {5b489573-d863-4b41-ae84-5298163507b5}, !- Handle
  Zone HVAC Equipment List 1,             !- Name
  {65afcce4-b2e4-4e8d-b2d6-53c6a0806b91}, !- Thermal Zone
  ,                                       !- Load Distribution Scheme
  {ebcffabc-3851-4c2a-9542-391bf51a5461}, !- Zone Equipment 1
  1,                                      !- Zone Equipment Cooling Sequence 1
  1,                                      !- Zone Equipment Heating or No-Load Sequence 1
  {3928f810-9135-4f2f-b50b-04d76f933962}, !- Zone Equipment Sequential Cooling Fraction Schedule Name 1
  {826e0097-3692-4567-bece-3f080a902ad8}; !- Zone Equipment Sequential Heating Fraction Schedule Name 1

OS:AdditionalProperties,
  {40761541-a268-420a-a51e-57db53e2c916}, !- Handle
  {65afcce4-b2e4-4e8d-b2d6-53c6a0806b91}, !- Object Name
  ObjectType,                             !- Feature Name 1
  String,                                 !- Feature Data Type 1
  conditioned space;                      !- Feature Value 1

OS:Space,
  {a9a20a3c-0fb9-4655-9317-678cce23fb04}, !- Handle
  conditioned space 1,                    !- Name
  ,                                       !- Space Type Name
  ,                                       !- Default Construction Set Name
  ,                                       !- Default Schedule Set Name
  ,                                       !- Direction of Relative North {deg}
  ,                                       !- X Origin {m}
  ,                                       !- Y Origin {m}
  ,                                       !- Z Origin {m}
  ,                                       !- Building Story Name
  {65afcce4-b2e4-4e8d-b2d6-53c6a0806b91}, !- Thermal Zone Name
  ,                                       !- Part of Total Floor Area
  ,                                       !- Design Specification Outdoor Air Object Name
  ,                                       !- Building Unit Name
  692.06373070848;                        !- Volume {m3}

OS:Schedule:Ruleset,
  {70ee3d4d-44c8-4bd4-9794-33cf01be4d51}, !- Handle
  heating setpoint,                       !- Name
  {2d3d71b6-2094-4129-a933-6c1b62650b05}, !- Schedule Type Limits Name
  {2e8819ef-6010-49de-b25b-1baefb325f41}; !- Default Day Schedule Name

OS:Schedule:Day,
  {2e8819ef-6010-49de-b25b-1baefb325f41}, !- Handle
  heating setpoint default day,           !- Name
  {2d3d71b6-2094-4129-a933-6c1b62650b05}, !- Schedule Type Limits Name
  ,                                       !- Interpolate to Timestep
  24,                                     !- Hour 1
  0,                                      !- Minute 1
  0;                                      !- Value Until Time 1

OS:Schedule:Rule,
  {48a855c8-a8f3-4f99-8145-21aeadc6382a}, !- Handle
  heating setpoint allday rule,           !- Name
  {70ee3d4d-44c8-4bd4-9794-33cf01be4d51}, !- Schedule Ruleset Name
  0,                                      !- Rule Order
  {5d71efd8-3ab7-4b68-bf2b-bd58aa8b95c7}, !- Day Schedule Name
  Yes,                                    !- Apply Sunday
  Yes,                                    !- Apply Monday
  Yes,                                    !- Apply Tuesday
  Yes,                                    !- Apply Wednesday
  Yes,                                    !- Apply Thursday
  Yes,                                    !- Apply Friday
  Yes,                                    !- Apply Saturday
  DateRange,                              !- Date Specification Type
  1,                                      !- Start Month
  1,                                      !- Start Day
  12,                                     !- End Month
  31;                                     !- End Day

OS:Schedule:Day,
  {5d71efd8-3ab7-4b68-bf2b-bd58aa8b95c7}, !- Handle
  heating setpoint day,                   !- Name
  {2d3d71b6-2094-4129-a933-6c1b62650b05}, !- Schedule Type Limits Name
  ,                                       !- Interpolate to Timestep
  24,                                     !- Hour 1
  0,                                      !- Minute 1
  20;                                     !- Value Until Time 1

OS:Schedule:Ruleset,
  {415e92f4-1ce0-4a37-8c37-f3764e1e47ca}, !- Handle
  cooling setpoint,                       !- Name
  {2d3d71b6-2094-4129-a933-6c1b62650b05}, !- Schedule Type Limits Name
  {74c3cf63-e179-4ffa-9d1b-b71b95e27c0e}; !- Default Day Schedule Name

OS:Schedule:Day,
  {74c3cf63-e179-4ffa-9d1b-b71b95e27c0e}, !- Handle
  cooling setpoint default day,           !- Name
  {2d3d71b6-2094-4129-a933-6c1b62650b05}, !- Schedule Type Limits Name
  ,                                       !- Interpolate to Timestep
  24,                                     !- Hour 1
  0,                                      !- Minute 1
  0;                                      !- Value Until Time 1

OS:Schedule:Rule,
  {f7241103-5b9f-4a3e-a747-49381d2b34bb}, !- Handle
  cooling setpoint allday rule,           !- Name
  {415e92f4-1ce0-4a37-8c37-f3764e1e47ca}, !- Schedule Ruleset Name
  0,                                      !- Rule Order
  {2a4861c5-4cf2-492f-87bd-495eb6181f63}, !- Day Schedule Name
  Yes,                                    !- Apply Sunday
  Yes,                                    !- Apply Monday
  Yes,                                    !- Apply Tuesday
  Yes,                                    !- Apply Wednesday
  Yes,                                    !- Apply Thursday
  Yes,                                    !- Apply Friday
  Yes,                                    !- Apply Saturday
  DateRange,                              !- Date Specification Type
  1,                                      !- Start Month
  1,                                      !- Start Day
  12,                                     !- End Month
  31;                                     !- End Day

OS:Schedule:Day,
  {2a4861c5-4cf2-492f-87bd-495eb6181f63}, !- Handle
  cooling setpoint day,                   !- Name
  {2d3d71b6-2094-4129-a933-6c1b62650b05}, !- Schedule Type Limits Name
  ,                                       !- Interpolate to Timestep
  24,                                     !- Hour 1
  0,                                      !- Minute 1
  25.5555555555556;                       !- Value Until Time 1

OS:ThermostatSetpoint:DualSetpoint,
  {080d94d7-22c7-4c69-9320-1d3fadc7c5fc}, !- Handle
  conditioned space temperature setpoint, !- Name
  {70ee3d4d-44c8-4bd4-9794-33cf01be4d51}, !- Heating Setpoint Temperature Schedule Name
  {415e92f4-1ce0-4a37-8c37-f3764e1e47ca}, !- Cooling Setpoint Temperature Schedule Name
  0;                                      !- Temperature Difference Between Cutout And Setpoint {deltaC}

OS:ScheduleTypeLimits,
  {2d3d71b6-2094-4129-a933-6c1b62650b05}, !- Handle
  Temperature,                            !- Name
  ,                                       !- Lower Limit Value
  ,                                       !- Upper Limit Value
  Continuous,                             !- Numeric Type
  Temperature;                            !- Unit Type

OS:Surface,
  {a932e37a-d3d7-49ec-a6fb-8ee24be63880}, !- Handle
  Roof1,                                  !- Name
  RoofCeiling,                            !- Surface Type
  {d1658a53-3730-4400-8870-969de490b27e}, !- Construction Name
  {cf9e5e36-0d78-4c1a-8cb2-0530ca0e5628}, !- Space Name
  Outdoors,                               !- Outside Boundary Condition
  ,                                       !- Outside Boundary Condition Object
  SunExposed,                             !- Sun Exposure
  WindExposed,                            !- Wind Exposure
  ,                                       !- View Factor to Ground
  ,                                       !- Number of Vertices
  -26.9347048849634, 58.0557891618865, 2.4384, !- X,Y,Z Vertex 1 {m}
  -26.9347048849634, 46.7895631136661, 8.0715130241102, !- X,Y,Z Vertex 2 {m}
  -14.3386812381136, 46.7895631136661, 8.0715130241102, !- X,Y,Z Vertex 3 {m}
  -14.3386812381136, 58.0557891618865, 2.4384; !- X,Y,Z Vertex 4 {m}

OS:AdditionalProperties,
  {88ace7ce-ddd2-4ec4-8a1b-0c1a36d9ccef}, !- Handle
  {a932e37a-d3d7-49ec-a6fb-8ee24be63880}, !- Object Name
  Length,                                 !- Feature Name 1
  Double,                                 !- Feature Data Type 1
  41.325536899113608,                     !- Feature Value 1
  Width,                                  !- Feature Name 2
  Double,                                 !- Feature Data Type 2
  41.325536899113601,                     !- Feature Value 2
  Azimuth,                                !- Feature Name 3
  Integer,                                !- Feature Data Type 3
  0,                                      !- Feature Value 3
  Tilt,                                   !- Feature Name 4
  Double,                                 !- Feature Data Type 4
  0.5,                                    !- Feature Value 4
  SurfaceType,                            !- Feature Name 5
  String,                                 !- Feature Data Type 5
  Roof;                                   !- Feature Value 5

OS:ThermalZone,
  {1d41bf71-634a-4147-9ae2-df04184d8c55}, !- Handle
  attic - vented,                         !- Name
  1,                                      !- Multiplier
  ,                                       !- Ceiling Height {m}
  356.389957095237,                       !- Volume {m3}
  ,                                       !- Floor Area {m2}
  ,                                       !- Zone Inside Convection Algorithm
  ,                                       !- Zone Outside Convection Algorithm
  ,                                       !- Zone Conditioning Equipment List Name
  {566b576d-20f2-4da2-baaf-6db200a946a1}, !- Zone Air Inlet Port List
  {c5d3dede-8215-46de-9d69-7065e7b69079}, !- Zone Air Exhaust Port List
  {b594142a-e8ed-4f6c-94d3-90cdfc886fbe}, !- Zone Air Node Name
  {f5a90090-dd08-460b-a094-3ae18dc77429}, !- Zone Return Air Port List
  ,                                       !- Primary Daylighting Control Name
  ,                                       !- Fraction of Zone Controlled by Primary Daylighting Control
  ,                                       !- Secondary Daylighting Control Name
  ,                                       !- Fraction of Zone Controlled by Secondary Daylighting Control
  ,                                       !- Illuminance Map Name
  ,                                       !- Group Rendering Name
  ,                                       !- Thermostat Name
  No;                                     !- Use Ideal Air Loads

OS:Node,
  {a33bd21e-0c5a-4284-965f-5a8622624016}, !- Handle
  Node 2,                                 !- Name
  {b594142a-e8ed-4f6c-94d3-90cdfc886fbe}, !- Inlet Port
  ;                                       !- Outlet Port

OS:Connection,
  {b594142a-e8ed-4f6c-94d3-90cdfc886fbe}, !- Handle
  {1d41bf71-634a-4147-9ae2-df04184d8c55}, !- Source Object
  11,                                     !- Outlet Port
  {a33bd21e-0c5a-4284-965f-5a8622624016}, !- Target Object
  2;                                      !- Inlet Port

OS:PortList,
  {566b576d-20f2-4da2-baaf-6db200a946a1}, !- Handle
  {1d41bf71-634a-4147-9ae2-df04184d8c55}; !- HVAC Component

OS:PortList,
  {c5d3dede-8215-46de-9d69-7065e7b69079}, !- Handle
  {1d41bf71-634a-4147-9ae2-df04184d8c55}; !- HVAC Component

OS:PortList,
  {f5a90090-dd08-460b-a094-3ae18dc77429}, !- Handle
  {1d41bf71-634a-4147-9ae2-df04184d8c55}; !- HVAC Component

OS:Sizing:Zone,
  {f62d35c3-d661-488e-9d64-794c2b9da80f}, !- Handle
  {1d41bf71-634a-4147-9ae2-df04184d8c55}, !- Zone or ZoneList Name
  SupplyAirTemperature,                   !- Zone Cooling Design Supply Air Temperature Input Method
  14,                                     !- Zone Cooling Design Supply Air Temperature {C}
  11.11,                                  !- Zone Cooling Design Supply Air Temperature Difference {deltaC}
  SupplyAirTemperature,                   !- Zone Heating Design Supply Air Temperature Input Method
  40,                                     !- Zone Heating Design Supply Air Temperature {C}
  11.11,                                  !- Zone Heating Design Supply Air Temperature Difference {deltaC}
  0.0085,                                 !- Zone Cooling Design Supply Air Humidity Ratio {kg-H2O/kg-air}
  0.008,                                  !- Zone Heating Design Supply Air Humidity Ratio {kg-H2O/kg-air}
  ,                                       !- Zone Heating Sizing Factor
  ,                                       !- Zone Cooling Sizing Factor
  DesignDay,                              !- Cooling Design Air Flow Method
  ,                                       !- Cooling Design Air Flow Rate {m3/s}
  ,                                       !- Cooling Minimum Air Flow per Zone Floor Area {m3/s-m2}
  ,                                       !- Cooling Minimum Air Flow {m3/s}
  ,                                       !- Cooling Minimum Air Flow Fraction
  DesignDay,                              !- Heating Design Air Flow Method
  ,                                       !- Heating Design Air Flow Rate {m3/s}
  ,                                       !- Heating Maximum Air Flow per Zone Floor Area {m3/s-m2}
  ,                                       !- Heating Maximum Air Flow {m3/s}
  ,                                       !- Heating Maximum Air Flow Fraction
  No,                                     !- Account for Dedicated Outdoor Air System
  NeutralSupplyAir,                       !- Dedicated Outdoor Air System Control Strategy
  autosize,                               !- Dedicated Outdoor Air Low Setpoint Temperature for Design {C}
  autosize,                               !- Dedicated Outdoor Air High Setpoint Temperature for Design {C}
  Sensible Load Only No Latent Load,      !- Zone Load Sizing Method
  HumidityRatioDifference,                !- Zone Latent Cooling Design Supply Air Humidity Ratio Input Method
  ,                                       !- Zone Dehumidification Design Supply Air Humidity Ratio {kgWater/kgDryAir}
  0.005,                                  !- Zone Cooling Design Supply Air Humidity Ratio Difference {kgWater/kgDryAir}
  HumidityRatioDifference,                !- Zone Latent Heating Design Supply Air Humidity Ratio Input Method
  ,                                       !- Zone Humidification Design Supply Air Humidity Ratio {kgWater/kgDryAir}
  0.005,                                  !- Zone Humidification Design Supply Air Humidity Ratio Difference {kgWater/kgDryAir}
  ,                                       !- Zone Humidistat Dehumidification Set Point Schedule Name
  ,                                       !- Zone Humidistat Humidification Set Point Schedule Name
  ,                                       !- Design Zone Air Distribution Effectiveness in Cooling Mode
  ,                                       !- Design Zone Air Distribution Effectiveness in Heating Mode
  ,                                       !- Design Zone Secondary Recirculation Fraction {dimensionless}
  ,                                       !- Design Minimum Zone Ventilation Efficiency {dimensionless}
  Coincident;                             !- Sizing Option

OS:ZoneHVAC:EquipmentList,
  {49940ecd-6039-407b-b78a-63ae837752b4}, !- Handle
  Zone HVAC Equipment List 2,             !- Name
  {1d41bf71-634a-4147-9ae2-df04184d8c55}; !- Thermal Zone

OS:AdditionalProperties,
  {362540e2-63f8-4cfb-b66b-a1fefcbcea62}, !- Handle
  {1d41bf71-634a-4147-9ae2-df04184d8c55}, !- Object Name
  ObjectType,                             !- Feature Name 1
  String,                                 !- Feature Data Type 1
  attic - vented;                         !- Feature Value 1

OS:Space,
  {cf9e5e36-0d78-4c1a-8cb2-0530ca0e5628}, !- Handle
  attic - vented 1,                       !- Name
  ,                                       !- Space Type Name
  ,                                       !- Default Construction Set Name
  ,                                       !- Default Schedule Set Name
  ,                                       !- Direction of Relative North {deg}
  ,                                       !- X Origin {m}
  ,                                       !- Y Origin {m}