
OS:Version,
  {6de2af13-b728-465f-9dec-6f17456b494e}, !- Handle
  3.10.0;                                 !- Version Identifier

OS:SimulationControl,
  {00582736-6638-4751-bd88-673873af0362}, !- Handle
  ,                                       !- Do Zone Sizing Calculation
  ,                                       !- Do System Sizing Calculation
  ,                                       !- Do Plant Sizing Calculation
  No;                                     !- Run Simulation for Sizing Periods

OS:Timestep,
  {1ec241ef-3677-4ece-a259-da9d41ef50e1}, !- Handle
  1;                                      !- Number of Timesteps per Hour

OS:ShadowCalculation,
  {bd221eff-5e3b-4f1d-b23a-dd8c793f48ae}, !- Handle
  PolygonClipping,                        !- Shading Calculation Method
  ,                                       !- Shading Calculation Update Frequency Method
  20,                                     !- Shading Calculation Update Frequency
  200,                                    !- Maximum Figures in Shadow Overlap Calculations
  ,                                       !- Polygon Clipping Algorithm
  512,                                    !- Pixel Counting Resolution
  ,                                       !- Sky Diffuse Modeling Algorithm
  No,                                     !- Output External Shading Calculation Results
  No,                                     !- Disable Self-Shading Within Shading Zone Groups
  No;                                     !- Disable Self-Shading From Shading Zone Groups to Other Zones

OS:SurfaceConvectionAlgorithm:Outside,
  {0ed9bb7c-22ab-44ab-b2e9-439342be09f0}, !- Handle
  DOE-2;                                  !- Algorithm

OS:SurfaceConvectionAlgorithm:Inside,
  {d7d45517-623b-42b0-ae7e-9a9348077781}, !- Handle
  TARP;                                   !- Algorithm

OS:ZoneCapacitanceMultiplier:ResearchSpecial,
  {cfc1754c-6938-43eb-aa56-f778eba1b6e6}, !- Handle
  7,                                      !- Temperature Capacity Multiplier
  15,                                     !- Humidity Capacity Multiplier
  ;                                       !- Carbon Dioxide Capacity Multiplier

OS:ConvergenceLimits,
  {6a698335-3b9a-451f-b8ea-9b24979f0ef3}, !- Handle
  0;                                      !- Minimum System Timestep {minutes}

OS:RunPeriod,
  {af7f89de-6878-4f15-879c-cbef5242e823}, !- Handle
  Run Period 1,                           !- Name
  1,                                      !- Begin Month
  1,                                      !- Begin Day of Month
  12,                                     !- End Month
  31,                                     !- End Day of Month
  ,                                       !- Use Weather File Holidays and Special Days
  ,                                       !- Use Weather File Daylight Saving Period
  ,                                       !- Apply Weekend Holiday Rule
  ,                                       !- Use Weather File Rain Indicators
  ,                                       !- Use Weather File Snow Indicators
  ;                                       !- Number of Times Runperiod to be Repeated

OS:PerformancePrecisionTradeoffs,
  {d6a6d04c-91a6-4f2f-aa1e-464ed6ca4930}, !- Handle
  ,                                       !- Use Coil Direct Solutions
  CarrollMRT;                             !- Zone Radiant Exchange Algorithm

OS:WeatherFile,
  {a06eb2d8-3c48-4752-a949-9ec6713be9dc}, !- Handle
  Buffalo Niagara Intl Ap,                !- City
  NY,                                     !- State Province Region
  USA,                                    !- Country
  TMY3,                                   !- Data Source
  725280,                                 !- WMO Number
  42.93,                                  !- Latitude {deg}
  -78.73,                                 !- Longitude {deg}
  -5,                                     !- Time Zone {hr}
  215,                                    !- Elevation {m}
  /Users/nmoore/github/urbanopt-example-geojson-project/example_project/weather/USA_NY_Buffalo-Greater.Buffalo.Intl.AP.725280_TMY3.epw, !- Url
  6B50E0FF,                               !- Checksum
  ,                                       !- Start Date Actual Year
  Sunday;                                 !- Start Day of Week

OS:YearDescription,
  {221d1d51-5b79-45b0-90af-a15f96c22824}, !- Handle
  2007,                                   !- Calendar Year
  ,                                       !- Day of Week for Start Day
  ;                                       !- Is Leap Year

OS:Site,
  {6ebf8d71-10d9-4c9c-8791-f5aa0fe6fc5f}, !- Handle
  Buffalo Niagara Intl Ap_NY,             !- Name
  42.93,                                  !- Latitude {deg}
  -78.73,                                 !- Longitude {deg}
  -5,                                     !- Time Zone {hr}
  215,                                    !- Elevation {m}
  Suburbs,                                !- Terrain
  Yes;                                    !- Keep Site Location Information

OS:RunPeriodControl:DaylightSavingTime,
  {25e570c3-2aba-4cba-a79c-3b8a3a00e85f}, !- Handle
  Mar 12,                                 !- Start Date
  Nov 5;                                  !- End Date

OS:Site:GroundTemperature:Shallow,
  {5054e9e7-329d-49c5-b8fb-1dd9d3c8ddf1}, !- Handle
  4.30207395723828,                       !- January Surface Ground Temperature {C}
  2.29327249652502,                       !- February Surface Ground Temperature {C}
  2.13240047156047,                       !- March Surface Ground Temperature {C}
  3.08567940719286,                       !- April Surface Ground Temperature {C}
  6.91256312497526,                       !- May Surface Ground Temperature {C}
  10.7216195949507,                       !- June Surface Ground Temperature {C}
  14.0238679822574,                       !- July Surface Ground Temperature {C}
  16.1157611184724,                       !- August Surface Ground Temperature {C}
  16.2934789303462,                       !- September Surface Ground Temperature {C}
  14.5920754632847,                       !- October Surface Ground Temperature {C}
  11.374036348653,                        !- November Surface Ground Temperature {C}
  7.68182621661674;                       !- December Surface Ground Temperature {C}

OS:Site:GroundTemperature:Deep,
  {7536a9ea-a6ba-476e-b863-a1d2c54739c1}, !- Handle
  10,                                     !- January Deep Ground Temperature {C}
  10,                                     !- February Deep Ground Temperature {C}
  10,                                     !- March Deep Ground Temperature {C}
  10,                                     !- April Deep Ground Temperature {C}
  10,                                     !- May Deep Ground Temperature {C}
  10,                                     !- June Deep Ground Temperature {C}
  10,                                     !- July Deep Ground Temperature {C}
  10,                                     !- August Deep Ground Temperature {C}
  10,                                     !- September Deep Ground Temperature {C}
  10,                                     !- October Deep Ground Temperature {C}
  10,                                     !- November Deep Ground Temperature {C}
  10;                                     !- December Deep Ground Temperature {C}

OS:ThermalZone,
  {bafdde17-4b7a-498e-a426-00a9823ae5f6}, !- Handle
  conditioned space,                      !- Name
  1,                                      !- Multiplier
  ,                                       !- Ceiling Height {m}
  692.06373070848,                        !- Volume {m3}
  ,                                       !- Floor Area {m2}
  ,                                       !- Zone Inside Convection Algorithm
  ,                                       !- Zone Outside Convection Algorithm
  ,                                       !- Zone Conditioning Equipment List Name
  {598bd544-e876-4729-90ff-ddc90817677b}, !- Zone Air Inlet Port List
  {a416e98e-a3df-441e-a27b-d8c0a7d709be}, !- Zone Air Exhaust Port List
  {384d816e-64b1-418f-9d87-513b5ae547ff}, !- Zone Air Node Name
  {451b5766-bb9c-4920-8703-be81c80a3035}, !- Zone Return Air Port List
  ,                                       !- Primary Daylighting Control Name
  ,                                       !- Fraction of Zone Controlled by Primary Daylighting Control
  ,                                       !- Secondary Daylighting Control Name
  ,                                       !- Fraction of Zone Controlled by Secondary Daylighting Control
  ,                                       !- Illuminance Map Name
  ,                                       !- Group Rendering Name
  {b9dd2fa2-1103-42f9-9d19-4760c5dc7945}, !- Thermostat Name
  No;                                     !- Use Ideal Air Loads

OS:Node,
  {978ee514-28bc-4a29-b37c-7c21060f0e50}, !- Handle
  Node 1,                                 !- Name
  {384d816e-64b1-418f-9d87-513b5ae547ff}, !- Inlet Port
  ;                                       !- Outlet Port

OS:Connection,
  {384d816e-64b1-418f-9d87-513b5ae547ff}, !- Handle
  {bafdde17-4b7a-498e-a426-00a9823ae5f6}, !- Source Object
  11,                                     !- Outlet Port
  {978ee514-28bc-4a29-b37c-7c21060f0e50}, !- Target Object
  2;                                      !- Inlet Port

OS:PortList,
  {598bd544-e876-4729-90ff-ddc90817677b}, !- Handle
  {bafdde17-4b7a-498e-a426-00a9823ae5f6}, !- HVAC Component
  {9f17dd38-922f-4cd9-bf96-e57264628620}; !- Port 1

OS:PortList,
  {a416e98e-a3df-441e-a27b-d8c0a7d709be}, !- Handle
  {bafdde17-4b7a-498e-a426-00a9823ae5f6}; !- HVAC Component

OS:PortList,
  {451b5766-bb9c-4920-8703-be81c80a3035}, !- Handle
  {bafdde17-4b7a-498e-a426-00a9823ae5f6}, !- HVAC Component
  {0d72fc7b-a2c2-49bf-9745-b7a015144c7d}; !- Port 1

OS:Sizing:Zone,
  {ca27dc52-7ca0-4903-91ef-202761a74f2d}, !- Handle
  {bafdde17-4b7a-498e-a426-00a9823ae5f6}, !- Zone or ZoneList Name
  SupplyAirTemperature,                   !- Zone Cooling Design Supply Air Temperature Input Method
  14,                                     !- Zone Cooling Design Supply Air Temperature {C}
  11.11,                                  !- Zone Cooling Design Supply Air Temperature Difference {deltaC}
  SupplyAirTemperature,                   !- Zone Heating Design Supply Air Temperature Input Method
  40,                                     !- Zone Heating Design Supply Air Temperature {C}
  11.11,                                  !- Zone Heating Design Supply Air Temperature Difference {deltaC}
  0.0085,                                 !- Zone Cooling Design Supply Air Humidity Ratio {kg-H2O/kg-air}
  0.008,                                  !- Zone Heating Design Supply Air Humidity Ratio {kg-H2O/kg-air}
  ,                                       !- Zone Heating Sizing Factor
  ,                                       !- Zone Cooling Sizing Factor
  DesignDay,                              !- Cooling Design Air Flow Method
  ,                                       !- Cooling Design Air Flow Rate {m3/s}
  ,                                       !- Cooling Minimum Air Flow per Zone Floor Area {m3/s-m2}
  ,                                       !- Cooling Minimum Air Flow {m3/s}
  ,                                       !- Cooling Minimum Air Flow Fraction
  DesignDay,                              !- Heating Design Air Flow Method
  ,                                       !- Heating Design Air Flow Rate {m3/s}
  ,                                       !- Heating Maximum Air Flow per Zone Floor Area {m3/s-m2}
  ,                                       !- Heating Maximum Air Flow {m3/s}
  ,                                       !- Heating Maximum Air Flow Fraction
  No,                                     !- Account for Dedicated Outdoor Air System
  NeutralSupplyAir,                       !- Dedicated Outdoor Air System Control Strategy
  autosize,                               !- Dedicated Outdoor Air Low Setpoint Temperature for Design {C}
  autosize,                               !- Dedicated Outdoor Air High Setpoint Temperature for Design {C}
  Sensible Load Only No Latent Load,      !- Zone Load Sizing Method
  HumidityRatioDifference,                !- Zone Latent Cooling Design Supply Air Humidity Ratio Input Method
  ,                                       !- Zone Dehumidification Design Supply Air Humidity Ratio {kgWater/kgDryAir}
  0.005,                                  !- Zone Cooling Design Supply Air Humidity Ratio Difference {kgWater/kgDryAir}
  HumidityRatioDifference,                !- Zone Latent Heating Design Supply Air Humidity Ratio Input Method
  ,                                       !- Zone Humidification Design Supply Air Humidity Ratio {kgWater/kgDryAir}
  0.005,                                  !- Zone Humidification Design Supply Air Humidity Ratio Difference {kgWater/kgDryAir}
  ,                                       !- Zone Humidistat Dehumidification Set Point Schedule Name
  ,                                       !- Zone Humidistat Humidification Set Point Schedule Name
  ,                                       !- Design Zone Air Distribution Effectiveness in Cooling Mode
  ,                                       !- Design Zone Air Distribution Effectiveness in Heating Mode
  ,                                       !- Design Zone Secondary Recirculation Fraction {dimensionless}
  ,                                       !- Design Minimum Zone Ventilation Efficiency {dimensionless}
  Coincident;                             !- Sizing Option

OS:ZoneHVAC:EquipmentList,
  {a254a316-5bf5-49dc-aa6a-bb1db7112f98}, !- Handle
  Zone HVAC Equipment List 1,             !- Name
  {bafdde17-4b7a-498e-a426-00a9823ae5f6}, !- Thermal Zone
  ,                                       !- Load Distribution Scheme
  {3a6044f4-4016-476d-b5df-6fa450d852fc}, !- Zone Equipment 1
  1,                                      !- Zone Equipment Cooling Sequence 1
  1,                                      !- Zone Equipment Heating or No-Load Sequence 1
  {dea48e4f-3ce2-437a-b87e-beabd7fc87b1}, !- Zone Equipment Sequential Cooling Fraction Schedule Name 1
  {e7303c12-32d9-439c-a0c2-1cfd341d83b1}; !- Zone Equipment Sequential Heating Fraction Schedule Name 1

OS:AdditionalProperties,
  {778a2c68-7477-47a8-bd8e-4b66f0fe5998}, !- Handle
  {bafdde17-4b7a-498e-a426-00a9823ae5f6}, !- Object Name
  ObjectType,                             !- Feature Name 1
  String,                                 !- Feature Data Type 1
  conditioned space;                      !- Feature Value 1

OS:Space,
  {8495a563-c8b0-40ed-88b7-7aab777cb787}, !- Handle
  conditioned space 1,                    !- Name
  ,                                       !- Space Type Name
  ,                                       !- Default Construction Set Name
  ,                                       !- Default Schedule Set Name
  ,                                       !- Direction of Relative North {deg}
  ,                                       !- X Origin {m}
  ,                                       !- Y Origin {m}
  ,                                       !- Z Origin {m}
  ,                                       !- Building Story Name
  {bafdde17-4b7a-498e-a426-00a9823ae5f6}, !- Thermal Zone Name
  ,                                       !- Part of Total Floor Area
  ,                                       !- Design Specification Outdoor Air Object Name
  ,                                       !- Building Unit Name
  692.06373070848;                        !- Volume {m3}

OS:Schedule:Ruleset,
  {7dd726ea-90b8-48a2-9e8b-68292b999d70}, !- Handle
  heating setpoint,                       !- Name
  {353ed398-548c-4411-b95e-bdcfe21836f8}, !- Schedule Type Limits Name
  {c4d9a84d-f1e8-4b7f-80fa-99431e2f4313}; !- Default Day Schedule Name

OS:Schedule:Day,
  {c4d9a84d-f1e8-4b7f-80fa-99431e2f4313}, !- Handle
  heating setpoint default day,           !- Name
  {353ed398-548c-4411-b95e-bdcfe21836f8}, !- Schedule Type Limits Name
  ,                                       !- Interpolate to Timestep
  24,                                     !- Hour 1
  0,                                      !- Minute 1
  0;                                      !- Value Until Time 1

OS:Schedule:Rule,
  {38d33c6f-dae8-499b-9e0a-3d4c697b18f4}, !- Handle
  heating setpoint allday rule,           !- Name
  {7dd726ea-90b8-48a2-9e8b-68292b999d70}, !- Schedule Ruleset Name
  0,                                      !- Rule Order
  {47956f35-25d7-47b2-a4e8-ee72f2f946e3}, !- Day Schedule Name
  Yes,                                    !- Apply Sunday
  Yes,                                    !- Apply Monday
  Yes,                                    !- Apply Tuesday
  Yes,                                    !- Apply Wednesday
  Yes,                                    !- Apply Thursday
  Yes,                                    !- Apply Friday
  Yes,                                    !- Apply Saturday
  DateRange,                              !- Date Specification Type
  1,                                      !- Start Month
  1,                                      !- Start Day
  12,                                     !- End Month
  31;                                     !- End Day

OS:Schedule:Day,
  {47956f35-25d7-47b2-a4e8-ee72f2f946e3}, !- Handle
  heating setpoint day,                   !- Name
  {353ed398-548c-4411-b95e-bdcfe21836f8}, !- Schedule Type Limits Name
  ,                                       !- Interpolate to Timestep
  24,                                     !- Hour 1
  0,                                      !- Minute 1
  20;                                     !- Value Until Time 1

OS:Schedule:Ruleset,
  {624adedd-7cd7-43f6-ac73-5c8cd187465e}, !- Handle
  cooling setpoint,                       !- Name
  {353ed398-548c-4411-b95e-bdcfe21836f8}, !- Schedule Type Limits Name
  {9c9ef96f-1427-4243-8169-f4336924bee7}; !- Default Day Schedule Name

OS:Schedule:Day,
  {9c9ef96f-1427-4243-8169-f4336924bee7}, !- Handle
  cooling setpoint default day,           !- Name
  {353ed398-548c-4411-b95e-bdcfe21836f8}, !- Schedule Type Limits Name
  ,                                       !- Interpolate to Timestep
  24,                                     !- Hour 1
  0,                                      !- Minute 1
  0;                                      !- Value Until Time 1

OS:Schedule:Rule,
  {10f3abcf-e86a-454b-877f-50211a25b4fe}, !- Handle
  cooling setpoint allday rule,           !- Name
  {624adedd-7cd7-43f6-ac73-5c8cd187465e}, !- Schedule Ruleset Name
  0,                                      !- Rule Order
  {42083c57-33d8-41c3-9de9-b84b76450eb7}, !- Day Schedule Name
  Yes,                                    !- Apply Sunday
  Yes,                                    !- Apply Monday
  Yes,                                    !- Apply Tuesday
  Yes,                                    !- Apply Wednesday
  Yes,                                    !- Apply Thursday
  Yes,                                    !- Apply Friday
  Yes,                                    !- Apply Saturday
  DateRange,                              !- Date Specification Type
  1,                                      !- Start Month
  1,                                      !- Start Day
  12,                                     !- End Month
  31;                                     !- End Day

OS:Schedule:Day,
  {42083c57-33d8-41c3-9de9-b84b76450eb7}, !- Handle
  cooling setpoint day,                   !- Name
  {353ed398-548c-4411-b95e-bdcfe21836f8}, !- Schedule Type Limits Name
  ,                                       !- Interpolate to Timestep
  24,                                     !- Hour 1
  0,                                      !- Minute 1
  25.5555555555556;                       !- Value Until Time 1

OS:ThermostatSetpoint:DualSetpoint,
  {b9dd2fa2-1103-42f9-9d19-4760c5dc7945}, !- Handle
  conditioned space temperature setpoint, !- Name
  {7dd726ea-90b8-48a2-9e8b-68292b999d70}, !- Heating Setpoint Temperature Schedule Name
  {624adedd-7cd7-43f6-ac73-5c8cd187465e}, !- Cooling Setpoint Temperature Schedule Name
  0;                                      !- Temperature Difference Between Cutout And Setpoint {deltaC}

OS:ScheduleTypeLimits,
  {353ed398-548c-4411-b95e-bdcfe21836f8}, !- Handle
  Temperature,                            !- Name
  ,                                       !- Lower Limit Value
  ,                                       !- Upper Limit Value
  Continuous,                             !- Numeric Type
  Temperature;                            !- Unit Type

OS:Surface,
  {ba15f905-6aea-46bf-9440-2378ca190ce2}, !- Handle
  Roof1,                                  !- Name
  RoofCeiling,                            !- Surface Type
  {30da7b5c-24ea-4095-aa7f-51f8849a08ae}, !- Construction Name
  {c1aeae2f-c11e-4d8f-a5b7-e645dabdd2d3}, !- Space Name
  Outdoors,                               !- Outside Boundary Condition
  ,                                       !- Outside Boundary Condition Object
  SunExposed,                             !- Sun Exposure
  WindExposed,                            !- Wind Exposure
  ,                                       !- View Factor to Ground
  ,                                       !- Number of Vertices
  -26.9347048849634, 58.0557891618865, 2.4384, !- X,Y,Z Vertex 1 {m}
  -26.9347048849634, 46.7895631136661, 8.0715130241102, !- X,Y,Z Vertex 2 {m}
  -14.3386812381136, 46.7895631136661, 8.0715130241102, !- X,Y,Z Vertex 3 {m}
  -14.3386812381136, 58.0557891618865, 2.4384; !- X,Y,Z Vertex 4 {m}

OS:AdditionalProperties,
  {16ec755c-77bd-48a6-b6b0-35c010801669}, !- Handle
  {ba15f905-6aea-46bf-9440-2378ca190ce2}, !- Object Name
  Length,                                 !- Feature Name 1
  Double,                                 !- Feature Data Type 1
  41.325536899113608,                     !- Feature Value 1
  Width,                                  !- Feature Name 2
  Double,                                 !- Feature Data Type 2
  41.325536899113601,                     !- Feature Value 2
  Azimuth,                                !- Feature Name 3
  Integer,                                !- Feature Data Type 3
  0,                                      !- Feature Value 3
  Tilt,                                   !- Feature Name 4
  Double,                                 !- Feature Data Type 4
  0.5,                                    !- Feature Value 4
  SurfaceType,                            !- Feature Name 5
  String,                                 !- Feature Data Type 5
  Roof;                                   !- Feature Value 5

OS:ThermalZone,
  {ddc507fb-6f6e-465b-8c61-5ea2d8ae51c4}, !- Handle
  attic - vented,                         !- Name
  1,                                      !- Multiplier
  ,                                       !- Ceiling Height {m}
  356.390921899745,                       !- Volume {m3}
  ,                                       !- Floor Area {m2}
  ,                                       !- Zone Inside Convection Algorithm
  ,                                       !- Zone Outside Convection Algorithm
  ,                                       !- Zone Conditioning Equipment List Name
  {f8f4e6d3-664a-40b7-827b-c12fa0dab225}, !- Zone Air Inlet Port List
  {a17276b1-cc2b-4fa4-93ff-a3cdedb16796}, !- Zone Air Exhaust Port List
  {3066097e-bad4-4da8-81e9-7ae4f9b60b41}, !- Zone Air Node Name
  {89eefe84-0075-48bd-8ce0-feb1037282d9}, !- Zone Return Air Port List
  ,                                       !- Primary Daylighting Control Name
  ,                                       !- Fraction of Zone Controlled by Primary Daylighting Control
  ,                                       !- Secondary Daylighting Control Name
  ,                                       !- Fraction of Zone Controlled by Secondary Daylighting Control
  ,                                       !- Illuminance Map Name
  ,                                       !- Group Rendering Name
  ,                                       !- Thermostat Name
  No;                                     !- Use Ideal Air Loads

OS:Node,
  {8072d00a-acba-42ad-a3df-c112f520b159}, !- Handle
  Node 2,                                 !- Name
  {3066097e-bad4-4da8-81e9-7ae4f9b60b41}, !- Inlet Port
  ;                                       !- Outlet Port

OS:Connection,
  {3066097e-bad4-4da8-81e9-7ae4f9b60b41}, !- Handle
  {ddc507fb-6f6e-465b-8c61-5ea2d8ae51c4}, !- Source Object
  11,                                     !- Outlet Port
  {8072d00a-acba-42ad-a3df-c112f520b159}, !- Target Object
  2;                                      !- Inlet Port

OS:PortList,
  {f8f4e6d3-664a-40b7-827b-c12fa0dab225}, !- Handle
  {ddc507fb-6f6e-465b-8c61-5ea2d8ae51c4}; !- HVAC Component

OS:PortList,
  {a17276b1-cc2b-4fa4-93ff-a3cdedb16796}, !- Handle
  {ddc507fb-6f6e-465b-8c61-5ea2d8ae51c4}; !- HVAC Component

OS:PortList,
  {89eefe84-0075-48bd-8ce0-feb1037282d9}, !- Handle
  {ddc507fb-6f6e-465b-8c61-5ea2d8ae51c4}; !- HVAC Component

OS:Sizing:Zone,
  {3830e220-33fb-4df4-b8f8-1116fd2ed053}, !- Handle
  {ddc507fb-6f6e-465b-8c61-5ea2d8ae51c4}, !- Zone or ZoneList Name
  SupplyAirTemperature,                   !- Zone Cooling Design Supply Air Temperature Input Method
  14,                                     !- Zone Cooling Design Supply Air Temperature {C}
  11.11,                                  !- Zone Cooling Design Supply Air Temperature Difference {deltaC}
  SupplyAirTemperature,                   !- Zone Heating Design Supply Air Temperature Input Method
  40,                                     !- Zone Heating Design Supply Air Temperature {C}
  11.11,                                  !- Zone Heating Design Supply Air Temperature Difference {deltaC}
  0.0085,                                 !- Zone Cooling Design Supply Air Humidity Ratio {kg-H2O/kg-air}
  0.008,                                  !- Zone Heating Design Supply Air Humidity Ratio {kg-H2O/kg-air}
  ,                                       !- Zone Heating Sizing Factor
  ,                                       !- Zone Cooling Sizing Factor
  DesignDay,                              !- Cooling Design Air Flow Method
  ,                                       !- Cooling Design Air Flow Rate {m3/s}
  ,                                       !- Cooling Minimum Air Flow per Zone Floor Area {m3/s-m2}
  ,                                       !- Cooling Minimum Air Flow {m3/s}
  ,                                       !- Cooling Minimum Air Flow Fraction
  DesignDay,                              !- Heating Design Air Flow Method
  ,                                       !- Heating Design Air Flow Rate {m3/s}
  ,                                       !- Heating Maximum Air Flow per Zone Floor Area {m3/s-m2}
  ,                                       !- Heating Maximum Air Flow {m3/s}
  ,                                       !- Heating Maximum Air Flow Fraction
  No,                                     !- Account for Dedicated Outdoor Air System
  NeutralSupplyAir,                       !- Dedicated Outdoor Air System Control Strategy
  autosize,                               !- Dedicated Outdoor Air Low Setpoint Temperature for Design {C}
  autosize,                               !- Dedicated Outdoor Air High Setpoint Temperature for Design {C}
  Sensible Load Only No Latent Load,      !- Zone Load Sizing Method
  HumidityRatioDifference,                !- Zone Latent Cooling Design Supply Air Humidity Ratio Input Method
  ,                                       !- Zone Dehumidification Design Supply Air Humidity Ratio {kgWater/kgDryAir}
  0.005,                                  !- Zone Cooling Design Supply Air Humidity Ratio Difference {kgWater/kgDryAir}
  HumidityRatioDifference,                !- Zone Latent Heating Design Supply Air Humidity Ratio Input Method
  ,                                       !- Zone Humidification Design Supply Air Humidity Ratio {kgWater/kgDryAir}
  0.005,                                  !- Zone Humidification Design Supply Air Humidity Ratio Difference {kgWater/kgDryAir}
  ,                                       !- Zone Humidistat Dehumidification Set Point Schedule Name
  ,                                       !- Zone Humidistat Humidification Set Point Schedule Name
  ,                                       !- Design Zone Air Distribution Effectiveness in Cooling Mode
  ,                                       !- Design Zone Air Distribution Effectiveness in Heating Mode
  ,                                       !- Design Zone Secondary Recirculation Fraction {dimensionless}
  ,                                       !- Design Minimum Zone Ventilation Efficiency {dimensionless}
  Coincident;                             !- Sizing Option

OS:ZoneHVAC:EquipmentList,
  {f37e4656-3840-4004-b514-bd98a5901a70}, !- Handle
  Zone HVAC Equipment List 2,             !- Name
  {ddc507fb-6f6e-465b-8c61-5ea2d8ae51c4}; !- Thermal Zone

OS:AdditionalProperties,
  {8e2a373e-8d9a-4f48-bcac-d0d9fb4bb05f}, !- Handle
  {ddc507fb-6f6e-465b-8c61-5ea2d8ae51c4}, !- Object Name
  ObjectType,                             !- Feature Name 1
  String,                                 !- Feature Data Type 1
  attic - vented;                         !- Feature Value 1

OS:Space,
  {c1aeae2f-c11e-4d8f-a5b7-e645dabdd2d3}, !- Handle
  attic - vented 1,                       !- Name
  ,                                       !- Space Type Name
  ,                                       !- Default Construction Set Name
  ,                                       !- Default Schedule Set Name
  ,                                       !- Direction of Relative North {deg}
  ,                                       !- X Origin {m}
  ,                                       !- Y Origin {m}