
OS:Version,
  {eb16878a-1566-4d92-810d-98cbe5f0c2a1}, !- Handle
  3.9.0;                                  !- Version Identifier

OS:SimulationControl,
  {fcfee2e0-c271-46d2-92e1-49d38910645e}, !- Handle
  ,                                       !- Do Zone Sizing Calculation
  ,                                       !- Do System Sizing Calculation
  ,                                       !- Do Plant Sizing Calculation
  No;                                     !- Run Simulation for Sizing Periods

OS:Timestep,
  {d836ca7c-f29f-409e-bf27-3a780e80a043}, !- Handle
  1;                                      !- Number of Timesteps per Hour

OS:ShadowCalculation,
  {7a94990d-a004-471e-bd67-6b8ad88a3581}, !- Handle
  PolygonClipping,                        !- Shading Calculation Method
  ,                                       !- Shading Calculation Update Frequency Method
  20,                                     !- Shading Calculation Update Frequency
  200,                                    !- Maximum Figures in Shadow Overlap Calculations
  ,                                       !- Polygon Clipping Algorithm
  512,                                    !- Pixel Counting Resolution
  ,                                       !- Sky Diffuse Modeling Algorithm
  No,                                     !- Output External Shading Calculation Results
  No,                                     !- Disable Self-Shading Within Shading Zone Groups
  No;                                     !- Disable Self-Shading From Shading Zone Groups to Other Zones

OS:SurfaceConvectionAlgorithm:Outside,
  {c7b16853-7bc9-466b-9a74-5967d15c16ca}, !- Handle
  DOE-2;                                  !- Algorithm

OS:SurfaceConvectionAlgorithm:Inside,
  {caa179e5-aa69-488c-8806-fa0597af0a14}, !- Handle
  TARP;                                   !- Algorithm

OS:ZoneCapacitanceMultiplier:ResearchSpecial,
  {01d65a6a-bfac-4fee-afed-23c6acfa5fbd}, !- Handle
  7,                                      !- Temperature Capacity Multiplier
  15,                                     !- Humidity Capacity Multiplier
  ;                                       !- Carbon Dioxide Capacity Multiplier

OS:ConvergenceLimits,
  {14a1c287-9e9d-49b4-a543-be164032d5de}, !- Handle
  0;                                      !- Minimum System Timestep {minutes}

OS:RunPeriod,
  {cdbb011b-7bbe-45f7-9d3d-f22ff43f82a1}, !- Handle
  Run Period 1,                           !- Name
  1,                                      !- Begin Month
  1,                                      !- Begin Day of Month
  12,                                     !- End Month
  31,                                     !- End Day of Month
  ,                                       !- Use Weather File Holidays and Special Days
  ,                                       !- Use Weather File Daylight Saving Period
  ,                                       !- Apply Weekend Holiday Rule
  ,                                       !- Use Weather File Rain Indicators
  ,                                       !- Use Weather File Snow Indicators
  ;                                       !- Number of Times Runperiod to be Repeated

OS:PerformancePrecisionTradeoffs,
  {7d99ef0d-299e-4af8-a013-341dc1038f21}, !- Handle
  ,                                       !- Use Coil Direct Solutions
  CarrollMRT;                             !- Zone Radiant Exchange Algorithm

OS:WeatherFile,
  {ad64c8e0-d393-4000-8594-464996809e15}, !- Handle
  Buffalo Niagara Intl Ap,                !- City
  NY,                                     !- State Province Region
  USA,                                    !- Country
  TMY3,                                   !- Data Source
  725280,                                 !- WMO Number
  42.93,                                  !- Latitude {deg}
  -78.73,                                 !- Longitude {deg}
  -5,                                     !- Time Zone {hr}
  215,                                    !- Elevation {m}
  /Users/nmoore/github/urbanopt-example-geojson-project/example_project/weather/USA_NY_Buffalo-Greater.Buffalo.Intl.AP.725280_TMY3.epw, !- Url
  6B50E0FF,                               !- Checksum
  ,                                       !- Start Date Actual Year
  Sunday;                                 !- Start Day of Week

OS:YearDescription,
  {7c3c925d-10d1-4294-ac52-adb060bd6a94}, !- Handle
  2007,                                   !- Calendar Year
  ,                                       !- Day of Week for Start Day
  ;                                       !- Is Leap Year

OS:Site,
  {be9ed626-3247-48b8-9033-01c4c1d357d4}, !- Handle
  Buffalo Niagara Intl Ap_NY,             !- Name
  42.93,                                  !- Latitude {deg}
  -78.73,                                 !- Longitude {deg}
  -5,                                     !- Time Zone {hr}
  215,                                    !- Elevation {m}
  Suburbs,                                !- Terrain
  Yes;                                    !- Keep Site Location Information

OS:RunPeriodControl:DaylightSavingTime,
  {4c7121b3-7a5b-4708-a69f-b90bf0497f35}, !- Handle
  Mar 12,                                 !- Start Date
  Nov 5;                                  !- End Date

OS:Site:GroundTemperature:Shallow,
  {e05f3fb1-60a5-4f76-85fa-4d5a5d59f401}, !- Handle
  4.30207395723828,                       !- January Surface Ground Temperature {C}
  2.29327249652502,                       !- February Surface Ground Temperature {C}
  2.13240047156047,                       !- March Surface Ground Temperature {C}
  3.08567940719286,                       !- April Surface Ground Temperature {C}
  6.91256312497526,                       !- May Surface Ground Temperature {C}
  10.7216195949507,                       !- June Surface Ground Temperature {C}
  14.0238679822574,                       !- July Surface Ground Temperature {C}
  16.1157611184724,                       !- August Surface Ground Temperature {C}
  16.2934789303462,                       !- September Surface Ground Temperature {C}
  14.5920754632847,                       !- October Surface Ground Temperature {C}
  11.374036348653,                        !- November Surface Ground Temperature {C}
  7.68182621661674;                       !- December Surface Ground Temperature {C}

OS:ThermalZone,
  {bf829590-7ab7-4c37-9e4d-98a22415405f}, !- Handle
  conditioned space,                      !- Name
  1,                                      !- Multiplier
  ,                                       !- Ceiling Height {m}
  692.06373070848,                        !- Volume {m3}
  ,                                       !- Floor Area {m2}
  ,                                       !- Zone Inside Convection Algorithm
  ,                                       !- Zone Outside Convection Algorithm
  ,                                       !- Zone Conditioning Equipment List Name
  {239b5f3f-aae3-46ef-8faf-f028c7869bde}, !- Zone Air Inlet Port List
  {6d64bb3c-3d9f-4874-8452-31930c85fc61}, !- Zone Air Exhaust Port List
  {f286c5a4-198e-49a7-9361-d11e312292c2}, !- Zone Air Node Name
  {5bca7d8f-f130-43da-afeb-1fe1cba97f4f}, !- Zone Return Air Port List
  ,                                       !- Primary Daylighting Control Name
  ,                                       !- Fraction of Zone Controlled by Primary Daylighting Control
  ,                                       !- Secondary Daylighting Control Name
  ,                                       !- Fraction of Zone Controlled by Secondary Daylighting Control
  ,                                       !- Illuminance Map Name
  ,                                       !- Group Rendering Name
  {9a2c8ed5-1613-4545-ba0c-185070181153}, !- Thermostat Name
  No;                                     !- Use Ideal Air Loads

OS:Node,
  {3b0cbe80-9476-40dc-b52c-949bc230c4e9}, !- Handle
  Node 1,                                 !- Name
  {f286c5a4-198e-49a7-9361-d11e312292c2}, !- Inlet Port
  ;                                       !- Outlet Port

OS:Connection,
  {f286c5a4-198e-49a7-9361-d11e312292c2}, !- Handle
  {bf829590-7ab7-4c37-9e4d-98a22415405f}, !- Source Object
  11,                                     !- Outlet Port
  {3b0cbe80-9476-40dc-b52c-949bc230c4e9}, !- Target Object
  2;                                      !- Inlet Port

OS:PortList,
  {239b5f3f-aae3-46ef-8faf-f028c7869bde}, !- Handle
  {bf829590-7ab7-4c37-9e4d-98a22415405f}, !- HVAC Component
  {0cc1a1cc-9d87-435a-ab8d-3c29467e6449}; !- Port 1

OS:PortList,
  {6d64bb3c-3d9f-4874-8452-31930c85fc61}, !- Handle
  {bf829590-7ab7-4c37-9e4d-98a22415405f}; !- HVAC Component

OS:PortList,
  {5bca7d8f-f130-43da-afeb-1fe1cba97f4f}, !- Handle
  {bf829590-7ab7-4c37-9e4d-98a22415405f}, !- HVAC Component
  {c3917cde-bc55-4dc4-8cd8-3f5bb1a99fec}; !- Port 1

OS:Sizing:Zone,
  {a8092805-5a5d-4428-a4a0-a8b46e2769cb}, !- Handle
  {bf829590-7ab7-4c37-9e4d-98a22415405f}, !- Zone or ZoneList Name
  SupplyAirTemperature,                   !- Zone Cooling Design Supply Air Temperature Input Method
  14,                                     !- Zone Cooling Design Supply Air Temperature {C}
  11.11,                                  !- Zone Cooling Design Supply Air Temperature Difference {deltaC}
  SupplyAirTemperature,                   !- Zone Heating Design Supply Air Temperature Input Method
  40,                                     !- Zone Heating Design Supply Air Temperature {C}
  11.11,                                  !- Zone Heating Design Supply Air Temperature Difference {deltaC}
  0.0085,                                 !- Zone Cooling Design Supply Air Humidity Ratio {kg-H2O/kg-air}
  0.008,                                  !- Zone Heating Design Supply Air Humidity Ratio {kg-H2O/kg-air}
  ,                                       !- Zone Heating Sizing Factor
  ,                                       !- Zone Cooling Sizing Factor
  DesignDay,                              !- Cooling Design Air Flow Method
  ,                                       !- Cooling Design Air Flow Rate {m3/s}
  ,                                       !- Cooling Minimum Air Flow per Zone Floor Area {m3/s-m2}
  ,                                       !- Cooling Minimum Air Flow {m3/s}
  ,                                       !- Cooling Minimum Air Flow Fraction
  DesignDay,                              !- Heating Design Air Flow Method
  ,                                       !- Heating Design Air Flow Rate {m3/s}
  ,                                       !- Heating Maximum Air Flow per Zone Floor Area {m3/s-m2}
  ,                                       !- Heating Maximum Air Flow {m3/s}
  ,                                       !- Heating Maximum Air Flow Fraction
  No,                                     !- Account for Dedicated Outdoor Air System
  NeutralSupplyAir,                       !- Dedicated Outdoor Air System Control Strategy
  autosize,                               !- Dedicated Outdoor Air Low Setpoint Temperature for Design {C}
  autosize,                               !- Dedicated Outdoor Air High Setpoint Temperature for Design {C}
  Sensible Load Only No Latent Load,      !- Zone Load Sizing Method
  HumidityRatioDifference,                !- Zone Latent Cooling Design Supply Air Humidity Ratio Input Method
  ,                                       !- Zone Dehumidification Design Supply Air Humidity Ratio {kgWater/kgDryAir}
  0.005,                                  !- Zone Cooling Design Supply Air Humidity Ratio Difference {kgWater/kgDryAir}
  HumidityRatioDifference,                !- Zone Latent Heating Design Supply Air Humidity Ratio Input Method
  ,                                       !- Zone Humidification Design Supply Air Humidity Ratio {kgWater/kgDryAir}
  0.005,                                  !- Zone Humidification Design Supply Air Humidity Ratio Difference {kgWater/kgDryAir}
  ,                                       !- Zone Humidistat Dehumidification Set Point Schedule Name
  ,                                       !- Zone Humidistat Humidification Set Point Schedule Name
  ,                                       !- Design Zone Air Distribution Effectiveness in Cooling Mode
  ,                                       !- Design Zone Air Distribution Effectiveness in Heating Mode
  ,                                       !- Design Zone Secondary Recirculation Fraction {dimensionless}
  ,                                       !- Design Minimum Zone Ventilation Efficiency {dimensionless}
  Coincident;                             !- Sizing Option

OS:ZoneHVAC:EquipmentList,
  {c641dd30-4c34-4d67-af48-c94f8aed9a3d}, !- Handle
  Zone HVAC Equipment List 1,             !- Name
  {bf829590-7ab7-4c37-9e4d-98a22415405f}, !- Thermal Zone
  ,                                       !- Load Distribution Scheme
  {6a80c5e0-84ef-441f-a845-90ce22a8ff04}, !- Zone Equipment 1
  1,                                      !- Zone Equipment Cooling Sequence 1
  1,                                      !- Zone Equipment Heating or No-Load Sequence 1
  {dcdae454-13f0-47bb-841e-933f056420c2}, !- Zone Equipment Sequential Cooling Fraction Schedule Name 1
  {83e93491-bc42-4126-9466-bddc06cd71bf}; !- Zone Equipment Sequential Heating Fraction Schedule Name 1

OS:AdditionalProperties,
  {570738c0-05be-4746-93b6-4583e2789779}, !- Handle
  {bf829590-7ab7-4c37-9e4d-98a22415405f}, !- Object Name
  ObjectType,                             !- Feature Name 1
  String,                                 !- Feature Data Type 1
  conditioned space;                      !- Feature Value 1

OS:Space,
  {ddfec8a9-f549-4f7f-8466-c7e1fc67a710}, !- Handle
  conditioned space 1,                    !- Name
  ,                                       !- Space Type Name
  ,                                       !- Default Construction Set Name
  ,                                       !- Default Schedule Set Name
  ,                                       !- Direction of Relative North {deg}
  ,                                       !- X Origin {m}
  ,                                       !- Y Origin {m}
  ,                                       !- Z Origin {m}
  ,                                       !- Building Story Name
  {bf829590-7ab7-4c37-9e4d-98a22415405f}, !- Thermal Zone Name
  ,                                       !- Part of Total Floor Area
  ,                                       !- Design Specification Outdoor Air Object Name
  ,                                       !- Building Unit Name
  692.06373070848;                        !- Volume {m3}

OS:Schedule:Ruleset,
  {b1ad99f0-a2c2-4387-9e65-3f1ea98b8d41}, !- Handle
  heating setpoint,                       !- Name
  {fa04bac5-f9f2-409f-886f-87913456791d}, !- Schedule Type Limits Name
  {f324c910-cab2-4fc9-a850-af19038d9541}; !- Default Day Schedule Name

OS:Schedule:Day,
  {f324c910-cab2-4fc9-a850-af19038d9541}, !- Handle
  heating setpoint default day,           !- Name
  {fa04bac5-f9f2-409f-886f-87913456791d}, !- Schedule Type Limits Name
  ,                                       !- Interpolate to Timestep
  24,                                     !- Hour 1
  0,                                      !- Minute 1
  0;                                      !- Value Until Time 1

OS:Schedule:Rule,
  {e5106e24-55b6-4566-a050-9b846df04c45}, !- Handle
  heating setpoint allday rule,           !- Name
  {b1ad99f0-a2c2-4387-9e65-3f1ea98b8d41}, !- Schedule Ruleset Name
  0,                                      !- Rule Order
  {60c7becd-550c-4b45-9dac-8f3dac2125ae}, !- Day Schedule Name
  Yes,                                    !- Apply Sunday
  Yes,                                    !- Apply Monday
  Yes,                                    !- Apply Tuesday
  Yes,                                    !- Apply Wednesday
  Yes,                                    !- Apply Thursday
  Yes,                                    !- Apply Friday
  Yes,                                    !- Apply Saturday
  DateRange,                              !- Date Specification Type
  1,                                      !- Start Month
  1,                                      !- Start Day
  12,                                     !- End Month
  31;                                     !- End Day

OS:Schedule:Day,
  {60c7becd-550c-4b45-9dac-8f3dac2125ae}, !- Handle
  heating setpoint day,                   !- Name
  {fa04bac5-f9f2-409f-886f-87913456791d}, !- Schedule Type Limits Name
  ,                                       !- Interpolate to Timestep
  24,                                     !- Hour 1
  0,                                      !- Minute 1
  20;                                     !- Value Until Time 1

OS:Schedule:Ruleset,
  {5a0a2376-05ba-43c5-a635-6ca1a3826db5}, !- Handle
  cooling setpoint,                       !- Name
  {fa04bac5-f9f2-409f-886f-87913456791d}, !- Schedule Type Limits Name
  {7ac85a2c-23d3-43e6-938e-6d5ce295bc50}; !- Default Day Schedule Name

OS:Schedule:Day,
  {7ac85a2c-23d3-43e6-938e-6d5ce295bc50}, !- Handle
  cooling setpoint default day,           !- Name
  {fa04bac5-f9f2-409f-886f-87913456791d}, !- Schedule Type Limits Name
  ,                                       !- Interpolate to Timestep
  24,                                     !- Hour 1
  0,                                      !- Minute 1
  0;                                      !- Value Until Time 1

OS:Schedule:Rule,
  {291b6237-48eb-480e-bcfb-f6039e2e88b4}, !- Handle
  cooling setpoint allday rule,           !- Name
  {5a0a2376-05ba-43c5-a635-6ca1a3826db5}, !- Schedule Ruleset Name
  0,                                      !- Rule Order
  {5788f67f-900e-4454-8b8e-b0ba133ce69b}, !- Day Schedule Name
  Yes,                                    !- Apply Sunday
  Yes,                                    !- Apply Monday
  Yes,                                    !- Apply Tuesday
  Yes,                                    !- Apply Wednesday
  Yes,                                    !- Apply Thursday
  Yes,                                    !- Apply Friday
  Yes,                                    !- Apply Saturday
  DateRange,                              !- Date Specification Type
  1,                                      !- Start Month
  1,                                      !- Start Day
  12,                                     !- End Month
  31;                                     !- End Day

OS:Schedule:Day,
  {5788f67f-900e-4454-8b8e-b0ba133ce69b}, !- Handle
  cooling setpoint day,                   !- Name
  {fa04bac5-f9f2-409f-886f-87913456791d}, !- Schedule Type Limits Name
  ,                                       !- Interpolate to Timestep
  24,                                     !- Hour 1
  0,                                      !- Minute 1
  25.5555555555556;                       !- Value Until Time 1

OS:ThermostatSetpoint:DualSetpoint,
  {9a2c8ed5-1613-4545-ba0c-185070181153}, !- Handle
  conditioned space temperature setpoint, !- Name
  {b1ad99f0-a2c2-4387-9e65-3f1ea98b8d41}, !- Heating Setpoint Temperature Schedule Name
  {5a0a2376-05ba-43c5-a635-6ca1a3826db5}, !- Cooling Setpoint Temperature Schedule Name
  0;                                      !- Temperature Difference Between Cutout And Setpoint {deltaC}

OS:ScheduleTypeLimits,
  {fa04bac5-f9f2-409f-886f-87913456791d}, !- Handle
  Temperature,                            !- Name
  ,                                       !- Lower Limit Value
  ,                                       !- Upper Limit Value
  Continuous,                             !- Numeric Type
  Temperature;                            !- Unit Type

OS:Surface,
  {e9294acf-5cc6-43f6-9449-5c1e49ba27de}, !- Handle
  Roof1,                                  !- Name
  RoofCeiling,                            !- Surface Type
  {6c8c9c63-32ba-4989-ada1-38fded62e3db}, !- Construction Name
  {08392eb2-132a-4317-afb4-742937edef19}, !- Space Name
  Outdoors,                               !- Outside Boundary Condition
  ,                                       !- Outside Boundary Condition Object
  SunExposed,                             !- Sun Exposure
  WindExposed,                            !- Wind Exposure
  ,                                       !- View Factor to Ground
  ,                                       !- Number of Vertices
  -26.9347048849634, 58.0557891618865, 2.4384, !- X,Y,Z Vertex 1 {m}
  -26.9347048849634, 46.7895631136661, 8.0715130241102, !- X,Y,Z Vertex 2 {m}
  -14.3386812381136, 46.7895631136661, 8.0715130241102, !- X,Y,Z Vertex 3 {m}
  -14.3386812381136, 58.0557891618865, 2.4384; !- X,Y,Z Vertex 4 {m}

OS:AdditionalProperties,
  {e4bcfcba-bb9b-4753-8978-650574f9196d}, !- Handle
  {e9294acf-5cc6-43f6-9449-5c1e49ba27de}, !- Object Name
  Length,                                 !- Feature Name 1
  Double,                                 !- Feature Data Type 1
  41.325536899113608,                     !- Feature Value 1
  Width,                                  !- Feature Name 2
  Double,                                 !- Feature Data Type 2
  41.325536899113601,                     !- Feature Value 2
  Azimuth,                                !- Feature Name 3
  Integer,                                !- Feature Data Type 3
  0,                                      !- Feature Value 3
  Tilt,                                   !- Feature Name 4
  Double,                                 !- Feature Data Type 4
  0.5,                                    !- Feature Value 4
  SurfaceType,                            !- Feature Name 5
  String,                                 !- Feature Data Type 5
  Roof;                                   !- Feature Value 5

OS:ThermalZone,
  {0467b1d7-6d21-4f8e-8c65-252698c21b26}, !- Handle
  attic - vented,                         !- Name
  1,                                      !- Multiplier
  ,                                       !- Ceiling Height {m}
  356.389957095237,                       !- Volume {m3}
  ,                                       !- Floor Area {m2}
  ,                                       !- Zone Inside Convection Algorithm
  ,                                       !- Zone Outside Convection Algorithm
  ,                                       !- Zone Conditioning Equipment List Name
  {a81ad73c-ebc1-4ab0-9107-5cb80428e98d}, !- Zone Air Inlet Port List
  {655c35ee-5972-4c1e-a454-16f9970641e2}, !- Zone Air Exhaust Port List
  {478500bb-654f-492e-9adc-17e173a6b571}, !- Zone Air Node Name
  {1b7b22e6-ad79-4e9a-bae8-3365c9123b83}, !- Zone Return Air Port List
  ,                                       !- Primary Daylighting Control Name
  ,                                       !- Fraction of Zone Controlled by Primary Daylighting Control
  ,                                       !- Secondary Daylighting Control Name
  ,                                       !- Fraction of Zone Controlled by Secondary Daylighting Control
  ,                                       !- Illuminance Map Name
  ,                                       !- Group Rendering Name
  ,                                       !- Thermostat Name
  No;                                     !- Use Ideal Air Loads

OS:Node,
  {babeba27-dfa0-49ab-975f-942efc1b0577}, !- Handle
  Node 2,                                 !- Name
  {478500bb-654f-492e-9adc-17e173a6b571}, !- Inlet Port
  ;                                       !- Outlet Port

OS:Connection,
  {478500bb-654f-492e-9adc-17e173a6b571}, !- Handle
  {0467b1d7-6d21-4f8e-8c65-252698c21b26}, !- Source Object
  11,                                     !- Outlet Port
  {babeba27-dfa0-49ab-975f-942efc1b0577}, !- Target Object
  2;                                      !- Inlet Port

OS:PortList,
  {a81ad73c-ebc1-4ab0-9107-5cb80428e98d}, !- Handle
  {0467b1d7-6d21-4f8e-8c65-252698c21b26}; !- HVAC Component

OS:PortList,
  {655c35ee-5972-4c1e-a454-16f9970641e2}, !- Handle
  {0467b1d7-6d21-4f8e-8c65-252698c21b26}; !- HVAC Component

OS:PortList,
  {1b7b22e6-ad79-4e9a-bae8-3365c9123b83}, !- Handle
  {0467b1d7-6d21-4f8e-8c65-252698c21b26}; !- HVAC Component

OS:Sizing:Zone,
  {3905d054-dd77-4e12-b899-e1ea30e7fb7f}, !- Handle
  {0467b1d7-6d21-4f8e-8c65-252698c21b26}, !- Zone or ZoneList Name
  SupplyAirTemperature,                   !- Zone Cooling Design Supply Air Temperature Input Method
  14,                                     !- Zone Cooling Design Supply Air Temperature {C}
  11.11,                                  !- Zone Cooling Design Supply Air Temperature Difference {deltaC}
  SupplyAirTemperature,                   !- Zone Heating Design Supply Air Temperature Input Method
  40,                                     !- Zone Heating Design Supply Air Temperature {C}
  11.11,                                  !- Zone Heating Design Supply Air Temperature Difference {deltaC}
  0.0085,                                 !- Zone Cooling Design Supply Air Humidity Ratio {kg-H2O/kg-air}
  0.008,                                  !- Zone Heating Design Supply Air Humidity Ratio {kg-H2O/kg-air}
  ,                                       !- Zone Heating Sizing Factor
  ,                                       !- Zone Cooling Sizing Factor
  DesignDay,                              !- Cooling Design Air Flow Method
  ,                                       !- Cooling Design Air Flow Rate {m3/s}
  ,                                       !- Cooling Minimum Air Flow per Zone Floor Area {m3/s-m2}
  ,                                       !- Cooling Minimum Air Flow {m3/s}
  ,                                       !- Cooling Minimum Air Flow Fraction
  DesignDay,                              !- Heating Design Air Flow Method
  ,                                       !- Heating Design Air Flow Rate {m3/s}
  ,                                       !- Heating Maximum Air Flow per Zone Floor Area {m3/s-m2}
  ,                                       !- Heating Maximum Air Flow {m3/s}
  ,                                       !- Heating Maximum Air Flow Fraction
  No,                                     !- Account for Dedicated Outdoor Air System
  NeutralSupplyAir,                       !- Dedicated Outdoor Air System Control Strategy
  autosize,                               !- Dedicated Outdoor Air Low Setpoint Temperature for Design {C}
  autosize,                               !- Dedicated Outdoor Air High Setpoint Temperature for Design {C}
  Sensible Load Only No Latent Load,      !- Zone Load Sizing Method
  HumidityRatioDifference,                !- Zone Latent Cooling Design Supply Air Humidity Ratio Input Method
  ,                                       !- Zone Dehumidification Design Supply Air Humidity Ratio {kgWater/kgDryAir}
  0.005,                                  !- Zone Cooling Design Supply Air Humidity Ratio Difference {kgWater/kgDryAir}
  HumidityRatioDifference,                !- Zone Latent Heating Design Supply Air Humidity Ratio Input Method
  ,                                       !- Zone Humidification Design Supply Air Humidity Ratio {kgWater/kgDryAir}
  0.005,                                  !- Zone Humidification Design Supply Air Humidity Ratio Difference {kgWater/kgDryAir}
  ,                                       !- Zone Humidistat Dehumidification Set Point Schedule Name
  ,                                       !- Zone Humidistat Humidification Set Point Schedule Name
  ,                                       !- Design Zone Air Distribution Effectiveness in Cooling Mode
  ,                                       !- Design Zone Air Distribution Effectiveness in Heating Mode
  ,                                       !- Design Zone Secondary Recirculation Fraction {dimensionless}
  ,                                       !- Design Minimum Zone Ventilation Efficiency {dimensionless}
  Coincident;                             !- Sizing Option

OS:ZoneHVAC:EquipmentList,
  {8816dbf6-26c1-4b26-b939-22b657dc033b}, !- Handle
  Zone HVAC Equipment List 2,             !- Name
  {0467b1d7-6d21-4f8e-8c65-252698c21b26}; !- Thermal Zone

OS:AdditionalProperties,
  {b56570e8-9c56-4a2e-a14f-507a7db37105}, !- Handle
  {0467b1d7-6d21-4f8e-8c65-252698c21b26}, !- Object Name
  ObjectType,                             !- Feature Name 1
  String,                                 !- Feature Data Type 1
  attic - vented;                         !- Feature Value 1

OS:Space,
  {08392eb2-132a-4317-afb4-742937edef19}, !- Handle
  attic - vented 1,                       !- Name
  ,                                       !- Space Type Name
  ,                                       !- Default Construction Set Name
  ,                                       !- Default Schedule Set Name
  ,                                       !- Direction of Relative North {deg}
  ,                                       !- X Origin {m}
  ,                                       !- Y Origin {m}
  ,                                       !- Z Origin {m}
  ,                                       !- Building Story Name
  {0467b1d7-6d21-4f8e-8c65-252698c21b26}, !- Thermal Zone Name
  ,                                       !- Part of Total Floor Area
  ,                                       !- Design Specification Outdoor Air Object Name
  ,                                       !- Building Unit Name
  356.389957095237;                       !- Volume {m3}

OS:Material,
  {710d10fe-bd6f-4240-8d62-0edaa01dcf09}, !- Handle
  asphalt or fiberglass shingles,         !- Name
  Rough,                                  !- Roughness
  0.00635,                                !- Thickness {m}
  0.162714,                               !- Conductivity {W/m-K}
  1121.4,                                 !- Density {kg/m3}
  1465.45,                                !- Specific Heat {J/kg-K}
  0.9,                                    !- Thermal Absorptance
  0.85,                                   !- Solar Absorptance