
OS:Version,
  {bb20081f-3280-4be6-a7ba-2ee7cd820680}, !- Handle
  3.10.0;                                 !- Version Identifier

OS:SimulationControl,
  {bcca3bd6-9155-49ea-83c5-84e490581d33}, !- Handle
  ,                                       !- Do Zone Sizing Calculation
  ,                                       !- Do System Sizing Calculation
  ,                                       !- Do Plant Sizing Calculation
  No;                                     !- Run Simulation for Sizing Periods

OS:Timestep,
  {80f0567b-d1cd-4957-a4e4-00da6561a113}, !- Handle
  1;                                      !- Number of Timesteps per Hour

OS:ShadowCalculation,
  {1dae5722-52c8-4462-9cfb-3a8337c5fa24}, !- Handle
  PolygonClipping,                        !- Shading Calculation Method
  ,                                       !- Shading Calculation Update Frequency Method
  20,                                     !- Shading Calculation Update Frequency
  200,                                    !- Maximum Figures in Shadow Overlap Calculations
  ,                                       !- Polygon Clipping Algorithm
  512,                                    !- Pixel Counting Resolution
  ,                                       !- Sky Diffuse Modeling Algorithm
  No,                                     !- Output External Shading Calculation Results
  No,                                     !- Disable Self-Shading Within Shading Zone Groups
  No;                                     !- Disable Self-Shading From Shading Zone Groups to Other Zones

OS:SurfaceConvectionAlgorithm:Outside,
  {3d5d23c5-0cf7-4177-bb3a-689c4055507e}, !- Handle
  DOE-2;                                  !- Algorithm

OS:SurfaceConvectionAlgorithm:Inside,
  {4a08e09e-20ec-4748-bfcf-a16bc3e2e30b}, !- Handle
  TARP;                                   !- Algorithm

OS:ZoneCapacitanceMultiplier:ResearchSpecial,
  {3b06ade7-d61e-4c73-8971-009f90043c46}, !- Handle
  7,                                      !- Temperature Capacity Multiplier
  15,                                     !- Humidity Capacity Multiplier
  ;                                       !- Carbon Dioxide Capacity Multiplier

OS:ConvergenceLimits,
  {404d6aac-7b62-4b0a-8ba8-55eb09e75bb1}, !- Handle
  0;                                      !- Minimum System Timestep {minutes}

OS:RunPeriod,
  {34f863b7-5792-465b-9cee-1aa786996957}, !- Handle
  Run Period 1,                           !- Name
  1,                                      !- Begin Month
  1,                                      !- Begin Day of Month
  12,                                     !- End Month
  31,                                     !- End Day of Month
  ,                                       !- Use Weather File Holidays and Special Days
  ,                                       !- Use Weather File Daylight Saving Period
  ,                                       !- Apply Weekend Holiday Rule
  ,                                       !- Use Weather File Rain Indicators
  ,                                       !- Use Weather File Snow Indicators
  ;                                       !- Number of Times Runperiod to be Repeated

OS:PerformancePrecisionTradeoffs,
  {e09e8e3e-474f-429e-b562-6869274ffd07}, !- Handle
  ,                                       !- Use Coil Direct Solutions
  CarrollMRT;                             !- Zone Radiant Exchange Algorithm

OS:WeatherFile,
  {6795def5-229f-48ed-b0da-f2412d9e2109}, !- Handle
  Buffalo Niagara Intl Ap,                !- City
  NY,                                     !- State Province Region
  USA,                                    !- Country
  TMY3,                                   !- Data Source
  725280,                                 !- WMO Number
  42.93,                                  !- Latitude {deg}
  -78.73,                                 !- Longitude {deg}
  -5,                                     !- Time Zone {hr}
  215,                                    !- Elevation {m}
  /Users/nmoore/github/urbanopt-example-geojson-project/example_project/weather/USA_NY_Buffalo-Greater.Buffalo.Intl.AP.725280_TMY3.epw, !- Url
  6B50E0FF,                               !- Checksum
  ,                                       !- Start Date Actual Year
  Sunday;                                 !- Start Day of Week

OS:YearDescription,
  {75d7ce94-62f6-4c9d-bc89-02dd3e17c766}, !- Handle
  2007,                                   !- Calendar Year
  ,                                       !- Day of Week for Start Day
  ;                                       !- Is Leap Year

OS:Site,
  {af87e031-2c13-47b1-a746-f43a7841e819}, !- Handle
  Buffalo Niagara Intl Ap_NY,             !- Name
  42.93,                                  !- Latitude {deg}
  -78.73,                                 !- Longitude {deg}
  -5,                                     !- Time Zone {hr}
  215,                                    !- Elevation {m}
  Suburbs,                                !- Terrain
  Yes;                                    !- Keep Site Location Information

OS:RunPeriodControl:DaylightSavingTime,
  {5bcc86ea-3bcd-49b6-856a-d45bc0a63fff}, !- Handle
  Mar 12,                                 !- Start Date
  Nov 5;                                  !- End Date

OS:Site:GroundTemperature:Shallow,
  {e0451acc-9cad-4a28-9e64-6959c34ff2b4}, !- Handle
  4.30207395723828,                       !- January Surface Ground Temperature {C}
  2.29327249652502,                       !- February Surface Ground Temperature {C}
  2.13240047156047,                       !- March Surface Ground Temperature {C}
  3.08567940719286,                       !- April Surface Ground Temperature {C}
  6.91256312497526,                       !- May Surface Ground Temperature {C}
  10.7216195949507,                       !- June Surface Ground Temperature {C}
  14.0238679822574,                       !- July Surface Ground Temperature {C}
  16.1157611184724,                       !- August Surface Ground Temperature {C}
  16.2934789303462,                       !- September Surface Ground Temperature {C}
  14.5920754632847,                       !- October Surface Ground Temperature {C}
  11.374036348653,                        !- November Surface Ground Temperature {C}
  7.68182621661674;                       !- December Surface Ground Temperature {C}

OS:ThermalZone,
  {5f9e5de5-ccd5-4bf3-9858-7748f21f5d97}, !- Handle
  conditioned space,                      !- Name
  1,                                      !- Multiplier
  ,                                       !- Ceiling Height {m}
  692.06373070848,                        !- Volume {m3}
  ,                                       !- Floor Area {m2}
  ,                                       !- Zone Inside Convection Algorithm
  ,                                       !- Zone Outside Convection Algorithm
  ,                                       !- Zone Conditioning Equipment List Name
  {97e86783-51a1-41fc-8f65-d183fc497cbe}, !- Zone Air Inlet Port List
  {5c09e2d0-d0b6-45e9-8533-7736fcab44e9}, !- Zone Air Exhaust Port List
  {2c9917b1-df7c-4cb7-b74b-b4eb3e7de799}, !- Zone Air Node Name
  {0dc61c2e-d539-4d1a-996f-94f1ab6e065e}, !- Zone Return Air Port List
  ,                                       !- Primary Daylighting Control Name
  ,                                       !- Fraction of Zone Controlled by Primary Daylighting Control
  ,                                       !- Secondary Daylighting Control Name
  ,                                       !- Fraction of Zone Controlled by Secondary Daylighting Control
  ,                                       !- Illuminance Map Name
  ,                                       !- Group Rendering Name
  {b7f1c413-f171-44be-85c1-6cb773ecad26}, !- Thermostat Name
  No;                                     !- Use Ideal Air Loads

OS:Node,
  {7cd3d037-ae34-497e-b9cb-35a614bd02d8}, !- Handle
  Node 1,                                 !- Name
  {2c9917b1-df7c-4cb7-b74b-b4eb3e7de799}, !- Inlet Port
  ;                                       !- Outlet Port

OS:Connection,
  {2c9917b1-df7c-4cb7-b74b-b4eb3e7de799}, !- Handle
  {5f9e5de5-ccd5-4bf3-9858-7748f21f5d97}, !- Source Object
  11,                                     !- Outlet Port
  {7cd3d037-ae34-497e-b9cb-35a614bd02d8}, !- Target Object
  2;                                      !- Inlet Port

OS:PortList,
  {97e86783-51a1-41fc-8f65-d183fc497cbe}, !- Handle
  {5f9e5de5-ccd5-4bf3-9858-7748f21f5d97}, !- HVAC Component
  {9685829c-aba0-409c-a62e-02dabb318aca}; !- Port 1

OS:PortList,
  {5c09e2d0-d0b6-45e9-8533-7736fcab44e9}, !- Handle
  {5f9e5de5-ccd5-4bf3-9858-7748f21f5d97}; !- HVAC Component

OS:PortList,
  {0dc61c2e-d539-4d1a-996f-94f1ab6e065e}, !- Handle
  {5f9e5de5-ccd5-4bf3-9858-7748f21f5d97}, !- HVAC Component
  {a4255a26-1461-45f1-8fb1-445d61e6d706}; !- Port 1

OS:Sizing:Zone,
  {52ac0f4b-26f7-4b72-b508-b7446fc9383a}, !- Handle
  {5f9e5de5-ccd5-4bf3-9858-7748f21f5d97}, !- Zone or ZoneList Name
  SupplyAirTemperature,                   !- Zone Cooling Design Supply Air Temperature Input Method
  14,                                     !- Zone Cooling Design Supply Air Temperature {C}
  11.11,                                  !- Zone Cooling Design Supply Air Temperature Difference {deltaC}
  SupplyAirTemperature,                   !- Zone Heating Design Supply Air Temperature Input Method
  40,                                     !- Zone Heating Design Supply Air Temperature {C}
  11.11,                                  !- Zone Heating Design Supply Air Temperature Difference {deltaC}
  0.0085,                                 !- Zone Cooling Design Supply Air Humidity Ratio {kg-H2O/kg-air}
  0.008,                                  !- Zone Heating Design Supply Air Humidity Ratio {kg-H2O/kg-air}
  ,                                       !- Zone Heating Sizing Factor
  ,                                       !- Zone Cooling Sizing Factor
  DesignDay,                              !- Cooling Design Air Flow Method
  ,                                       !- Cooling Design Air Flow Rate {m3/s}
  ,                                       !- Cooling Minimum Air Flow per Zone Floor Area {m3/s-m2}
  ,                                       !- Cooling Minimum Air Flow {m3/s}
  ,                                       !- Cooling Minimum Air Flow Fraction
  DesignDay,                              !- Heating Design Air Flow Method
  ,                                       !- Heating Design Air Flow Rate {m3/s}
  ,                                       !- Heating Maximum Air Flow per Zone Floor Area {m3/s-m2}
  ,                                       !- Heating Maximum Air Flow {m3/s}
  ,                                       !- Heating Maximum Air Flow Fraction
  No,                                     !- Account for Dedicated Outdoor Air System
  NeutralSupplyAir,                       !- Dedicated Outdoor Air System Control Strategy
  autosize,                               !- Dedicated Outdoor Air Low Setpoint Temperature for Design {C}
  autosize,                               !- Dedicated Outdoor Air High Setpoint Temperature for Design {C}
  Sensible Load Only No Latent Load,      !- Zone Load Sizing Method
  HumidityRatioDifference,                !- Zone Latent Cooling Design Supply Air Humidity Ratio Input Method
  ,                                       !- Zone Dehumidification Design Supply Air Humidity Ratio {kgWater/kgDryAir}
  0.005,                                  !- Zone Cooling Design Supply Air Humidity Ratio Difference {kgWater/kgDryAir}
  HumidityRatioDifference,                !- Zone Latent Heating Design Supply Air Humidity Ratio Input Method
  ,                                       !- Zone Humidification Design Supply Air Humidity Ratio {kgWater/kgDryAir}
  0.005,                                  !- Zone Humidification Design Supply Air Humidity Ratio Difference {kgWater/kgDryAir}
  ,                                       !- Zone Humidistat Dehumidification Set Point Schedule Name
  ,                                       !- Zone Humidistat Humidification Set Point Schedule Name
  ,                                       !- Design Zone Air Distribution Effectiveness in Cooling Mode
  ,                                       !- Design Zone Air Distribution Effectiveness in Heating Mode
  ,                                       !- Design Zone Secondary Recirculation Fraction {dimensionless}
  ,                                       !- Design Minimum Zone Ventilation Efficiency {dimensionless}
  Coincident;                             !- Sizing Option

OS:ZoneHVAC:EquipmentList,
  {7fdf11f8-9934-4780-b604-57796851034c}, !- Handle
  Zone HVAC Equipment List 1,             !- Name
  {5f9e5de5-ccd5-4bf3-9858-7748f21f5d97}, !- Thermal Zone
  ,                                       !- Load Distribution Scheme
  {612bb9d3-ce21-42d8-aee0-8e679214dafa}, !- Zone Equipment 1
  1,                                      !- Zone Equipment Cooling Sequence 1
  1,                                      !- Zone Equipment Heating or No-Load Sequence 1
  {ee3aad6a-d26d-49cd-a12b-3608c7159e43}, !- Zone Equipment Sequential Cooling Fraction Schedule Name 1
  {7fdbf66c-7c4e-45a8-95da-8330259cbed9}; !- Zone Equipment Sequential Heating Fraction Schedule Name 1

OS:AdditionalProperties,
  {5fd71eac-d607-4163-81ff-c097a6e1182b}, !- Handle
  {5f9e5de5-ccd5-4bf3-9858-7748f21f5d97}, !- Object Name
  ObjectType,                             !- Feature Name 1
  String,                                 !- Feature Data Type 1
  conditioned space;                      !- Feature Value 1

OS:Space,
  {d16f8c25-10bd-463a-8437-5ee9b5a6177f}, !- Handle
  conditioned space 1,                    !- Name
  ,                                       !- Space Type Name
  ,                                       !- Default Construction Set Name
  ,                                       !- Default Schedule Set Name
  ,                                       !- Direction of Relative North {deg}
  ,                                       !- X Origin {m}
  ,                                       !- Y Origin {m}
  ,                                       !- Z Origin {m}
  ,                                       !- Building Story Name
  {5f9e5de5-ccd5-4bf3-9858-7748f21f5d97}, !- Thermal Zone Name
  ,                                       !- Part of Total Floor Area
  ,                                       !- Design Specification Outdoor Air Object Name
  ,                                       !- Building Unit Name
  692.06373070848;                        !- Volume {m3}

OS:Schedule:Ruleset,
  {7d6de8aa-efd5-4505-9915-699270b2304c}, !- Handle
  heating setpoint,                       !- Name
  {c0649715-ad88-487d-93f2-b15853498d9e}, !- Schedule Type Limits Name
  {a4d63768-e2f1-4a3b-aeed-ac4ed44f5f4b}; !- Default Day Schedule Name

OS:Schedule:Day,
  {a4d63768-e2f1-4a3b-aeed-ac4ed44f5f4b}, !- Handle
  heating setpoint default day,           !- Name
  {c0649715-ad88-487d-93f2-b15853498d9e}, !- Schedule Type Limits Name
  ,                                       !- Interpolate to Timestep
  24,                                     !- Hour 1
  0,                                      !- Minute 1
  0;                                      !- Value Until Time 1

OS:Schedule:Rule,
  {aa1d88fe-11aa-41ad-972a-abab9408c2a8}, !- Handle
  heating setpoint allday rule,           !- Name
  {7d6de8aa-efd5-4505-9915-699270b2304c}, !- Schedule Ruleset Name
  0,                                      !- Rule Order
  {8969f52b-d9d9-4a3c-927b-9b321eb87803}, !- Day Schedule Name
  Yes,                                    !- Apply Sunday
  Yes,                                    !- Apply Monday
  Yes,                                    !- Apply Tuesday
  Yes,                                    !- Apply Wednesday
  Yes,                                    !- Apply Thursday
  Yes,                                    !- Apply Friday
  Yes,                                    !- Apply Saturday
  DateRange,                              !- Date Specification Type
  1,                                      !- Start Month
  1,                                      !- Start Day
  12,                                     !- End Month
  31;                                     !- End Day

OS:Schedule:Day,
  {8969f52b-d9d9-4a3c-927b-9b321eb87803}, !- Handle
  heating setpoint day,                   !- Name
  {c0649715-ad88-487d-93f2-b15853498d9e}, !- Schedule Type Limits Name
  ,                                       !- Interpolate to Timestep
  24,                                     !- Hour 1
  0,                                      !- Minute 1
  20;                                     !- Value Until Time 1

OS:Schedule:Ruleset,
  {8e1d6546-557d-4151-9461-cecdfd399ae9}, !- Handle
  cooling setpoint,                       !- Name
  {c0649715-ad88-487d-93f2-b15853498d9e}, !- Schedule Type Limits Name
  {bc780dbf-aeff-4a7e-abc1-8eba95a87bd7}; !- Default Day Schedule Name

OS:Schedule:Day,
  {bc780dbf-aeff-4a7e-abc1-8eba95a87bd7}, !- Handle
  cooling setpoint default day,           !- Name
  {c0649715-ad88-487d-93f2-b15853498d9e}, !- Schedule Type Limits Name
  ,                                       !- Interpolate to Timestep
  24,                                     !- Hour 1
  0,                                      !- Minute 1
  0;                                      !- Value Until Time 1

OS:Schedule:Rule,
  {35df6ae6-7fa5-4991-bed5-a1c4b22595d0}, !- Handle
  cooling setpoint allday rule,           !- Name
  {8e1d6546-557d-4151-9461-cecdfd399ae9}, !- Schedule Ruleset Name
  0,                                      !- Rule Order
  {9c994b7c-58de-4a9e-af44-ca18dc3bd028}, !- Day Schedule Name
  Yes,                                    !- Apply Sunday
  Yes,                                    !- Apply Monday
  Yes,                                    !- Apply Tuesday
  Yes,                                    !- Apply Wednesday
  Yes,                                    !- Apply Thursday
  Yes,                                    !- Apply Friday
  Yes,                                    !- Apply Saturday
  DateRange,                              !- Date Specification Type
  1,                                      !- Start Month
  1,                                      !- Start Day
  12,                                     !- End Month
  31;                                     !- End Day

OS:Schedule:Day,
  {9c994b7c-58de-4a9e-af44-ca18dc3bd028}, !- Handle
  cooling setpoint day,                   !- Name
  {c0649715-ad88-487d-93f2-b15853498d9e}, !- Schedule Type Limits Name
  ,                                       !- Interpolate to Timestep
  24,                                     !- Hour 1
  0,                                      !- Minute 1
  25.5555555555556;                       !- Value Until Time 1

OS:ThermostatSetpoint:DualSetpoint,
  {b7f1c413-f171-44be-85c1-6cb773ecad26}, !- Handle
  conditioned space temperature setpoint, !- Name
  {7d6de8aa-efd5-4505-9915-699270b2304c}, !- Heating Setpoint Temperature Schedule Name
  {8e1d6546-557d-4151-9461-cecdfd399ae9}, !- Cooling Setpoint Temperature Schedule Name
  0;                                      !- Temperature Difference Between Cutout And Setpoint {deltaC}

OS:ScheduleTypeLimits,
  {c0649715-ad88-487d-93f2-b15853498d9e}, !- Handle
  Temperature,                            !- Name
  ,                                       !- Lower Limit Value
  ,                                       !- Upper Limit Value
  Continuous,                             !- Numeric Type
  Temperature;                            !- Unit Type

OS:Surface,
  {c4188ce0-b205-4dbf-a478-185f36486084}, !- Handle
  Roof1,                                  !- Name
  RoofCeiling,                            !- Surface Type
  {e4c08a59-7174-463c-a433-c1d836c0f79b}, !- Construction Name
  {79edcfc1-929d-4a42-902d-6777b67b1ec0}, !- Space Name
  Outdoors,                               !- Outside Boundary Condition
  ,                                       !- Outside Boundary Condition Object
  SunExposed,                             !- Sun Exposure
  WindExposed,                            !- Wind Exposure
  ,                                       !- View Factor to Ground
  ,                                       !- Number of Vertices
  -26.9347048849634, 58.0557891618865, 2.4384, !- X,Y,Z Vertex 1 {m}
  -26.9347048849634, 46.7895631136661, 8.0715130241102, !- X,Y,Z Vertex 2 {m}
  -14.3386812381136, 46.7895631136661, 8.0715130241102, !- X,Y,Z Vertex 3 {m}
  -14.3386812381136, 58.0557891618865, 2.4384; !- X,Y,Z Vertex 4 {m}

OS:AdditionalProperties,
  {c7e689d3-1d97-49a1-9aba-690448a57c6c}, !- Handle
  {c4188ce0-b205-4dbf-a478-185f36486084}, !- Object Name
  Length,                                 !- Feature Name 1
  Double,                                 !- Feature Data Type 1
  41.325536899113608,                     !- Feature Value 1
  Width,                                  !- Feature Name 2
  Double,                                 !- Feature Data Type 2
  41.325536899113601,                     !- Feature Value 2
  Azimuth,                                !- Feature Name 3
  Integer,                                !- Feature Data Type 3
  0,                                      !- Feature Value 3
  Tilt,                                   !- Feature Name 4
  Double,                                 !- Feature Data Type 4
  0.5,                                    !- Feature Value 4
  SurfaceType,                            !- Feature Name 5
  String,                                 !- Feature Data Type 5
  Roof;                                   !- Feature Value 5

OS:ThermalZone,
  {526c850d-2596-4875-b729-df902e38c272}, !- Handle
  attic - vented,                         !- Name
  1,                                      !- Multiplier
  ,                                       !- Ceiling Height {m}
  356.390921899745,                       !- Volume {m3}
  ,                                       !- Floor Area {m2}
  ,                                       !- Zone Inside Convection Algorithm
  ,                                       !- Zone Outside Convection Algorithm
  ,                                       !- Zone Conditioning Equipment List Name
  {4aa49acf-148a-492c-b5d5-0d0d70e1c62b}, !- Zone Air Inlet Port List
  {15a84270-17ef-44fa-b86c-c3432efb0bd5}, !- Zone Air Exhaust Port List
  {5b855473-4812-40f7-bc00-b7143020378c}, !- Zone Air Node Name
  {3534ade5-8fb6-49cb-819b-65e72952daab}, !- Zone Return Air Port List
  ,                                       !- Primary Daylighting Control Name
  ,                                       !- Fraction of Zone Controlled by Primary Daylighting Control
  ,                                       !- Secondary Daylighting Control Name
  ,                                       !- Fraction of Zone Controlled by Secondary Daylighting Control
  ,                                       !- Illuminance Map Name
  ,                                       !- Group Rendering Name
  ,                                       !- Thermostat Name
  No;                                     !- Use Ideal Air Loads

OS:Node,
  {60a634d8-0da0-4ea5-958b-2ec92ac0e355}, !- Handle
  Node 2,                                 !- Name
  {5b855473-4812-40f7-bc00-b7143020378c}, !- Inlet Port
  ;                                       !- Outlet Port

OS:Connection,
  {5b855473-4812-40f7-bc00-b7143020378c}, !- Handle
  {526c850d-2596-4875-b729-df902e38c272}, !- Source Object
  11,                                     !- Outlet Port
  {60a634d8-0da0-4ea5-958b-2ec92ac0e355}, !- Target Object
  2;                                      !- Inlet Port

OS:PortList,
  {4aa49acf-148a-492c-b5d5-0d0d70e1c62b}, !- Handle
  {526c850d-2596-4875-b729-df902e38c272}; !- HVAC Component

OS:PortList,
  {15a84270-17ef-44fa-b86c-c3432efb0bd5}, !- Handle
  {526c850d-2596-4875-b729-df902e38c272}; !- HVAC Component

OS:PortList,
  {3534ade5-8fb6-49cb-819b-65e72952daab}, !- Handle
  {526c850d-2596-4875-b729-df902e38c272}; !- HVAC Component

OS:Sizing:Zone,
  {ec1ac9b1-c400-43c5-b72e-45422e9435d8}, !- Handle
  {526c850d-2596-4875-b729-df902e38c272}, !- Zone or ZoneList Name
  SupplyAirTemperature,                   !- Zone Cooling Design Supply Air Temperature Input Method
  14,                                     !- Zone Cooling Design Supply Air Temperature {C}
  11.11,                                  !- Zone Cooling Design Supply Air Temperature Difference {deltaC}
  SupplyAirTemperature,                   !- Zone Heating Design Supply Air Temperature Input Method
  40,                                     !- Zone Heating Design Supply Air Temperature {C}
  11.11,                                  !- Zone Heating Design Supply Air Temperature Difference {deltaC}
  0.0085,                                 !- Zone Cooling Design Supply Air Humidity Ratio {kg-H2O/kg-air}
  0.008,                                  !- Zone Heating Design Supply Air Humidity Ratio {kg-H2O/kg-air}
  ,                                       !- Zone Heating Sizing Factor
  ,                                       !- Zone Cooling Sizing Factor
  DesignDay,                              !- Cooling Design Air Flow Method
  ,                                       !- Cooling Design Air Flow Rate {m3/s}
  ,                                       !- Cooling Minimum Air Flow per Zone Floor Area {m3/s-m2}
  ,                                       !- Cooling Minimum Air Flow {m3/s}
  ,                                       !- Cooling Minimum Air Flow Fraction
  DesignDay,                              !- Heating Design Air Flow Method
  ,                                       !- Heating Design Air Flow Rate {m3/s}
  ,                                       !- Heating Maximum Air Flow per Zone Floor Area {m3/s-m2}
  ,                                       !- Heating Maximum Air Flow {m3/s}
  ,                                       !- Heating Maximum Air Flow Fraction
  No,                                     !- Account for Dedicated Outdoor Air System
  NeutralSupplyAir,                       !- Dedicated Outdoor Air System Control Strategy
  autosize,                               !- Dedicated Outdoor Air Low Setpoint Temperature for Design {C}
  autosize,                               !- Dedicated Outdoor Air High Setpoint Temperature for Design {C}
  Sensible Load Only No Latent Load,      !- Zone Load Sizing Method
  HumidityRatioDifference,                !- Zone Latent Cooling Design Supply Air Humidity Ratio Input Method
  ,                                       !- Zone Dehumidification Design Supply Air Humidity Ratio {kgWater/kgDryAir}
  0.005,                                  !- Zone Cooling Design Supply Air Humidity Ratio Difference {kgWater/kgDryAir}
  HumidityRatioDifference,                !- Zone Latent Heating Design Supply Air Humidity Ratio Input Method
  ,                                       !- Zone Humidification Design Supply Air Humidity Ratio {kgWater/kgDryAir}
  0.005,                                  !- Zone Humidification Design Supply Air Humidity Ratio Difference {kgWater/kgDryAir}
  ,                                       !- Zone Humidistat Dehumidification Set Point Schedule Name
  ,                                       !- Zone Humidistat Humidification Set Point Schedule Name
  ,                                       !- Design Zone Air Distribution Effectiveness in Cooling Mode
  ,                                       !- Design Zone Air Distribution Effectiveness in Heating Mode
  ,                                       !- Design Zone Secondary Recirculation Fraction {dimensionless}
  ,                                       !- Design Minimum Zone Ventilation Efficiency {dimensionless}
  Coincident;                             !- Sizing Option

OS:ZoneHVAC:EquipmentList,
  {3e4dd0a3-6766-4608-b1fb-0f28d3f5baad}, !- Handle
  Zone HVAC Equipment List 2,             !- Name
  {526c850d-2596-4875-b729-df902e38c272}; !- Thermal Zone

OS:AdditionalProperties,
  {3c2851af-8b45-49ef-86e6-be71e6391adb}, !- Handle
  {526c850d-2596-4875-b729-df902e38c272}, !- Object Name
  ObjectType,                             !- Feature Name 1
  String,                                 !- Feature Data Type 1
  attic - vented;                         !- Feature Value 1

OS:Space,
  {79edcfc1-929d-4a42-902d-6777b67b1ec0}, !- Handle
  attic - vented 1,                       !- Name
  ,                                       !- Space Type Name
  ,                                       !- Default Construction Set Name
  ,                                       !- Default Schedule Set Name
  ,                                       !- Direction of Relative North {deg}
  ,                                       !- X Origin {m}
  ,                                       !- Y Origin {m}
  ,                                       !- Z Origin {m}
  ,                                       !- Building Story Name
  {526c850d-2596-4875-b729-df902e38c272}, !- Thermal Zone Name
  ,                                       !- Part of Total Floor Area
  ,                                       !- Design Specification Outdoor Air Object Name
  ,                                       !- Building Unit Name
  356.390921899745;                       !- Volume {m3}

OS:Material,
  {ab783092-72f1-4ee9-b417-798d3391e48a}, !- Handle
  asphalt or fiberglass shingles,         !- Name
  Rough,                                  !- Roughness
  0.00635,                                !- Thickness {m}
  0.162714,                               !- Conductivity {W/m-K}
  1121.4,                                 !- Density {kg/m3}
  1465.45,                                !- Specific Heat {J/kg-K}
  0.9,                                    !- Thermal Absorptance
  0.85,                                   !- Solar Absorptance