
OS:Version,
  {fe4a76e0-6d0f-428c-8a98-3f7df21ff223}, !- Handle
  3.10.0;                                 !- Version Identifier

OS:SimulationControl,
  {16397ccc-bdb1-48e3-9ac3-1d98a5560f8e}, !- Handle
  ,                                       !- Do Zone Sizing Calculation
  ,                                       !- Do System Sizing Calculation
  ,                                       !- Do Plant Sizing Calculation
  No;                                     !- Run Simulation for Sizing Periods

OS:Timestep,
  {03f92e6d-ceb4-4b3d-9dec-291450ae9bd3}, !- Handle
  1;                                      !- Number of Timesteps per Hour

OS:ShadowCalculation,
  {3bc4d23b-d585-47ae-b3e4-52cb35067ea5}, !- Handle
  PolygonClipping,                        !- Shading Calculation Method
  ,                                       !- Shading Calculation Update Frequency Method
  20,                                     !- Shading Calculation Update Frequency
  200,                                    !- Maximum Figures in Shadow Overlap Calculations
  ,                                       !- Polygon Clipping Algorithm
  512,                                    !- Pixel Counting Resolution
  ,                                       !- Sky Diffuse Modeling Algorithm
  No,                                     !- Output External Shading Calculation Results
  No,                                     !- Disable Self-Shading Within Shading Zone Groups
  No;                                     !- Disable Self-Shading From Shading Zone Groups to Other Zones

OS:SurfaceConvectionAlgorithm:Outside,
  {61122fbf-6dfe-4004-8c95-c6923e956f81}, !- Handle
  DOE-2;                                  !- Algorithm

OS:SurfaceConvectionAlgorithm:Inside,
  {7d762476-40be-4134-b18c-969d487fb304}, !- Handle
  TARP;                                   !- Algorithm

OS:ZoneCapacitanceMultiplier:ResearchSpecial,
  {ab348272-2224-49d4-8267-e02bab510103}, !- Handle
  7,                                      !- Temperature Capacity Multiplier
  15,                                     !- Humidity Capacity Multiplier
  ;                                       !- Carbon Dioxide Capacity Multiplier

OS:ConvergenceLimits,
  {51fd4a13-6f0e-4768-83c7-91418071a2fb}, !- Handle
  0;                                      !- Minimum System Timestep {minutes}

OS:RunPeriod,
  {0aed666e-6d70-4a02-9951-40fbf09d2f17}, !- Handle
  Run Period 1,                           !- Name
  1,                                      !- Begin Month
  1,                                      !- Begin Day of Month
  12,                                     !- End Month
  31,                                     !- End Day of Month
  ,                                       !- Use Weather File Holidays and Special Days
  ,                                       !- Use Weather File Daylight Saving Period
  ,                                       !- Apply Weekend Holiday Rule
  ,                                       !- Use Weather File Rain Indicators
  ,                                       !- Use Weather File Snow Indicators
  ;                                       !- Number of Times Runperiod to be Repeated

OS:PerformancePrecisionTradeoffs,
  {35b8f803-d471-4168-baf2-e1b9fce630b5}, !- Handle
  ,                                       !- Use Coil Direct Solutions
  CarrollMRT;                             !- Zone Radiant Exchange Algorithm

OS:WeatherFile,
  {9a7b83b0-6551-436c-9890-4e50120b19e9}, !- Handle
  Buffalo Niagara Intl Ap,                !- City
  NY,                                     !- State Province Region
  USA,                                    !- Country
  TMY3,                                   !- Data Source
  725280,                                 !- WMO Number
  42.93,                                  !- Latitude {deg}
  -78.73,                                 !- Longitude {deg}
  -5,                                     !- Time Zone {hr}
  215,                                    !- Elevation {m}
  /Users/nmoore/github/urbanopt-example-geojson-project/example_project/weather/USA_NY_Buffalo-Greater.Buffalo.Intl.AP.725280_TMY3.epw, !- Url
  6B50E0FF,                               !- Checksum
  ,                                       !- Start Date Actual Year
  Sunday;                                 !- Start Day of Week

OS:YearDescription,
  {7a80a497-ab81-4144-a83a-935ca5455c17}, !- Handle
  2007,                                   !- Calendar Year
  ,                                       !- Day of Week for Start Day
  ;                                       !- Is Leap Year

OS:Site,
  {65d5ce03-f6b8-42bd-8242-035376d27114}, !- Handle
  Buffalo Niagara Intl Ap_NY,             !- Name
  42.93,                                  !- Latitude {deg}
  -78.73,                                 !- Longitude {deg}
  -5,                                     !- Time Zone {hr}
  215,                                    !- Elevation {m}
  Suburbs,                                !- Terrain
  Yes;                                    !- Keep Site Location Information

OS:RunPeriodControl:DaylightSavingTime,
  {101eaecf-8363-4213-a22d-c7bb152c23f4}, !- Handle
  Mar 12,                                 !- Start Date
  Nov 5;                                  !- End Date

OS:Site:GroundTemperature:Shallow,
  {56f19b2e-1ab4-48cd-8e29-b1effc529ff1}, !- Handle
  4.30207395723828,                       !- January Surface Ground Temperature {C}
  2.29327249652502,                       !- February Surface Ground Temperature {C}
  2.13240047156047,                       !- March Surface Ground Temperature {C}
  3.08567940719286,                       !- April Surface Ground Temperature {C}
  6.91256312497526,                       !- May Surface Ground Temperature {C}
  10.7216195949507,                       !- June Surface Ground Temperature {C}
  14.0238679822574,                       !- July Surface Ground Temperature {C}
  16.1157611184724,                       !- August Surface Ground Temperature {C}
  16.2934789303462,                       !- September Surface Ground Temperature {C}
  14.5920754632847,                       !- October Surface Ground Temperature {C}
  11.374036348653,                        !- November Surface Ground Temperature {C}
  7.68182621661674;                       !- December Surface Ground Temperature {C}

OS:ThermalZone,
  {f8fbc186-a7df-45ec-8aed-25decb88f76e}, !- Handle
  conditioned space,                      !- Name
  1,                                      !- Multiplier
  ,                                       !- Ceiling Height {m}
  692.06373070848,                        !- Volume {m3}
  ,                                       !- Floor Area {m2}
  ,                                       !- Zone Inside Convection Algorithm
  ,                                       !- Zone Outside Convection Algorithm
  ,                                       !- Zone Conditioning Equipment List Name
  {13b888a1-96be-4ff6-83e1-48933a82b288}, !- Zone Air Inlet Port List
  {bbc25294-efe3-44a0-9173-7f7fd147ca99}, !- Zone Air Exhaust Port List
  {8e7dd178-7e60-44dc-a2e9-4f18653dab1c}, !- Zone Air Node Name
  {8a6a2a1b-91d2-48c0-b1ab-b3ba266d968b}, !- Zone Return Air Port List
  ,                                       !- Primary Daylighting Control Name
  ,                                       !- Fraction of Zone Controlled by Primary Daylighting Control
  ,                                       !- Secondary Daylighting Control Name
  ,                                       !- Fraction of Zone Controlled by Secondary Daylighting Control
  ,                                       !- Illuminance Map Name
  ,                                       !- Group Rendering Name
  {cd33f9cc-dfdf-44e0-b466-0df8f626cc8d}, !- Thermostat Name
  No;                                     !- Use Ideal Air Loads

OS:Node,
  {173ac01b-9e14-40c0-abf3-06e6eb1c3442}, !- Handle
  Node 1,                                 !- Name
  {8e7dd178-7e60-44dc-a2e9-4f18653dab1c}, !- Inlet Port
  ;                                       !- Outlet Port

OS:Connection,
  {8e7dd178-7e60-44dc-a2e9-4f18653dab1c}, !- Handle
  {f8fbc186-a7df-45ec-8aed-25decb88f76e}, !- Source Object
  11,                                     !- Outlet Port
  {173ac01b-9e14-40c0-abf3-06e6eb1c3442}, !- Target Object
  2;                                      !- Inlet Port

OS:PortList,
  {13b888a1-96be-4ff6-83e1-48933a82b288}, !- Handle
  {f8fbc186-a7df-45ec-8aed-25decb88f76e}, !- HVAC Component
  {59ac35ea-bba7-49e8-9f14-8be3da5509af}; !- Port 1

OS:PortList,
  {bbc25294-efe3-44a0-9173-7f7fd147ca99}, !- Handle
  {f8fbc186-a7df-45ec-8aed-25decb88f76e}; !- HVAC Component

OS:PortList,
  {8a6a2a1b-91d2-48c0-b1ab-b3ba266d968b}, !- Handle
  {f8fbc186-a7df-45ec-8aed-25decb88f76e}, !- HVAC Component
  {8e6b378f-17b1-480d-abc3-df4ab3df4989}; !- Port 1

OS:Sizing:Zone,
  {dfbc13f1-7e2d-4a34-86ad-3c949629e787}, !- Handle
  {f8fbc186-a7df-45ec-8aed-25decb88f76e}, !- Zone or ZoneList Name
  SupplyAirTemperature,                   !- Zone Cooling Design Supply Air Temperature Input Method
  14,                                     !- Zone Cooling Design Supply Air Temperature {C}
  11.11,                                  !- Zone Cooling Design Supply Air Temperature Difference {deltaC}
  SupplyAirTemperature,                   !- Zone Heating Design Supply Air Temperature Input Method
  40,                                     !- Zone Heating Design Supply Air Temperature {C}
  11.11,                                  !- Zone Heating Design Supply Air Temperature Difference {deltaC}
  0.0085,                                 !- Zone Cooling Design Supply Air Humidity Ratio {kg-H2O/kg-air}
  0.008,                                  !- Zone Heating Design Supply Air Humidity Ratio {kg-H2O/kg-air}
  ,                                       !- Zone Heating Sizing Factor
  ,                                       !- Zone Cooling Sizing Factor
  DesignDay,                              !- Cooling Design Air Flow Method
  ,                                       !- Cooling Design Air Flow Rate {m3/s}
  ,                                       !- Cooling Minimum Air Flow per Zone Floor Area {m3/s-m2}
  ,                                       !- Cooling Minimum Air Flow {m3/s}
  ,                                       !- Cooling Minimum Air Flow Fraction
  DesignDay,                              !- Heating Design Air Flow Method
  ,                                       !- Heating Design Air Flow Rate {m3/s}
  ,                                       !- Heating Maximum Air Flow per Zone Floor Area {m3/s-m2}
  ,                                       !- Heating Maximum Air Flow {m3/s}
  ,                                       !- Heating Maximum Air Flow Fraction
  No,                                     !- Account for Dedicated Outdoor Air System
  NeutralSupplyAir,                       !- Dedicated Outdoor Air System Control Strategy
  autosize,                               !- Dedicated Outdoor Air Low Setpoint Temperature for Design {C}
  autosize,                               !- Dedicated Outdoor Air High Setpoint Temperature for Design {C}
  Sensible Load Only No Latent Load,      !- Zone Load Sizing Method
  HumidityRatioDifference,                !- Zone Latent Cooling Design Supply Air Humidity Ratio Input Method
  ,                                       !- Zone Dehumidification Design Supply Air Humidity Ratio {kgWater/kgDryAir}
  0.005,                                  !- Zone Cooling Design Supply Air Humidity Ratio Difference {kgWater/kgDryAir}
  HumidityRatioDifference,                !- Zone Latent Heating Design Supply Air Humidity Ratio Input Method
  ,                                       !- Zone Humidification Design Supply Air Humidity Ratio {kgWater/kgDryAir}
  0.005,                                  !- Zone Humidification Design Supply Air Humidity Ratio Difference {kgWater/kgDryAir}
  ,                                       !- Zone Humidistat Dehumidification Set Point Schedule Name
  ,                                       !- Zone Humidistat Humidification Set Point Schedule Name
  ,                                       !- Design Zone Air Distribution Effectiveness in Cooling Mode
  ,                                       !- Design Zone Air Distribution Effectiveness in Heating Mode
  ,                                       !- Design Zone Secondary Recirculation Fraction {dimensionless}
  ,                                       !- Design Minimum Zone Ventilation Efficiency {dimensionless}
  Coincident;                             !- Sizing Option

OS:ZoneHVAC:EquipmentList,
  {cb2188ee-f625-4cd9-ae76-5ac1ad73da52}, !- Handle
  Zone HVAC Equipment List 1,             !- Name
  {f8fbc186-a7df-45ec-8aed-25decb88f76e}, !- Thermal Zone
  ,                                       !- Load Distribution Scheme
  {73225cb1-0e51-40be-9093-dec707dfbad3}, !- Zone Equipment 1
  1,                                      !- Zone Equipment Cooling Sequence 1
  1,                                      !- Zone Equipment Heating or No-Load Sequence 1
  {d6e7ecbd-799b-49d2-8896-e14d42bd350b}, !- Zone Equipment Sequential Cooling Fraction Schedule Name 1
  {dca73bd5-a48c-4de9-8851-079a76c3c160}; !- Zone Equipment Sequential Heating Fraction Schedule Name 1

OS:AdditionalProperties,
  {1d07fb33-2e57-4240-8f0e-5b90dff9f1ef}, !- Handle
  {f8fbc186-a7df-45ec-8aed-25decb88f76e}, !- Object Name
  ObjectType,                             !- Feature Name 1
  String,                                 !- Feature Data Type 1
  conditioned space;                      !- Feature Value 1

OS:Space,
  {7d369849-b757-4704-ba0a-27ebe9cb39f7}, !- Handle
  conditioned space 1,                    !- Name
  ,                                       !- Space Type Name
  ,                                       !- Default Construction Set Name
  ,                                       !- Default Schedule Set Name
  ,                                       !- Direction of Relative North {deg}
  ,                                       !- X Origin {m}
  ,                                       !- Y Origin {m}
  ,                                       !- Z Origin {m}
  ,                                       !- Building Story Name
  {f8fbc186-a7df-45ec-8aed-25decb88f76e}, !- Thermal Zone Name
  ,                                       !- Part of Total Floor Area
  ,                                       !- Design Specification Outdoor Air Object Name
  ,                                       !- Building Unit Name
  692.06373070848;                        !- Volume {m3}

OS:Schedule:Ruleset,
  {a1208777-7613-4b45-a66f-2862ae83ae3a}, !- Handle
  heating setpoint,                       !- Name
  {f8dc184e-2e45-4ee2-9681-e16396b00e3e}, !- Schedule Type Limits Name
  {3c338564-c121-49c5-a13b-af73f06015f4}; !- Default Day Schedule Name

OS:Schedule:Day,
  {3c338564-c121-49c5-a13b-af73f06015f4}, !- Handle
  heating setpoint default day,           !- Name
  {f8dc184e-2e45-4ee2-9681-e16396b00e3e}, !- Schedule Type Limits Name
  ,                                       !- Interpolate to Timestep
  24,                                     !- Hour 1
  0,                                      !- Minute 1
  0;                                      !- Value Until Time 1

OS:Schedule:Rule,
  {7acf807a-48b4-4edc-a5ff-ae2857e85a25}, !- Handle
  heating setpoint allday rule,           !- Name
  {a1208777-7613-4b45-a66f-2862ae83ae3a}, !- Schedule Ruleset Name
  0,                                      !- Rule Order
  {60cadef3-89a5-443f-9b03-7b02f08bb4fa}, !- Day Schedule Name
  Yes,                                    !- Apply Sunday
  Yes,                                    !- Apply Monday
  Yes,                                    !- Apply Tuesday
  Yes,                                    !- Apply Wednesday
  Yes,                                    !- Apply Thursday
  Yes,                                    !- Apply Friday
  Yes,                                    !- Apply Saturday
  DateRange,                              !- Date Specification Type
  1,                                      !- Start Month
  1,                                      !- Start Day
  12,                                     !- End Month
  31;                                     !- End Day

OS:Schedule:Day,
  {60cadef3-89a5-443f-9b03-7b02f08bb4fa}, !- Handle
  heating setpoint day,                   !- Name
  {f8dc184e-2e45-4ee2-9681-e16396b00e3e}, !- Schedule Type Limits Name
  ,                                       !- Interpolate to Timestep
  24,                                     !- Hour 1
  0,                                      !- Minute 1
  20;                                     !- Value Until Time 1

OS:Schedule:Ruleset,
  {edafb255-93c8-4c7d-9103-ec14d7f10c4f}, !- Handle
  cooling setpoint,                       !- Name
  {f8dc184e-2e45-4ee2-9681-e16396b00e3e}, !- Schedule Type Limits Name
  {dcfbd8e2-f39c-4d64-988e-df10d71399e5}; !- Default Day Schedule Name

OS:Schedule:Day,
  {dcfbd8e2-f39c-4d64-988e-df10d71399e5}, !- Handle
  cooling setpoint default day,           !- Name
  {f8dc184e-2e45-4ee2-9681-e16396b00e3e}, !- Schedule Type Limits Name
  ,                                       !- Interpolate to Timestep
  24,                                     !- Hour 1
  0,                                      !- Minute 1
  0;                                      !- Value Until Time 1

OS:Schedule:Rule,
  {0fc82386-7570-4a2b-8832-afc5bbd3215a}, !- Handle
  cooling setpoint allday rule,           !- Name
  {edafb255-93c8-4c7d-9103-ec14d7f10c4f}, !- Schedule Ruleset Name
  0,                                      !- Rule Order
  {f61f8d01-662b-4407-9910-63140cb382f7}, !- Day Schedule Name
  Yes,                                    !- Apply Sunday
  Yes,                                    !- Apply Monday
  Yes,                                    !- Apply Tuesday
  Yes,                                    !- Apply Wednesday
  Yes,                                    !- Apply Thursday
  Yes,                                    !- Apply Friday
  Yes,                                    !- Apply Saturday
  DateRange,                              !- Date Specification Type
  1,                                      !- Start Month
  1,                                      !- Start Day
  12,                                     !- End Month
  31;                                     !- End Day

OS:Schedule:Day,
  {f61f8d01-662b-4407-9910-63140cb382f7}, !- Handle
  cooling setpoint day,                   !- Name
  {f8dc184e-2e45-4ee2-9681-e16396b00e3e}, !- Schedule Type Limits Name
  ,                                       !- Interpolate to Timestep
  24,                                     !- Hour 1
  0,                                      !- Minute 1
  25.5555555555556;                       !- Value Until Time 1

OS:ThermostatSetpoint:DualSetpoint,
  {cd33f9cc-dfdf-44e0-b466-0df8f626cc8d}, !- Handle
  conditioned space temperature setpoint, !- Name
  {a1208777-7613-4b45-a66f-2862ae83ae3a}, !- Heating Setpoint Temperature Schedule Name
  {edafb255-93c8-4c7d-9103-ec14d7f10c4f}, !- Cooling Setpoint Temperature Schedule Name
  0;                                      !- Temperature Difference Between Cutout And Setpoint {deltaC}

OS:ScheduleTypeLimits,
  {f8dc184e-2e45-4ee2-9681-e16396b00e3e}, !- Handle
  Temperature,                            !- Name
  ,                                       !- Lower Limit Value
  ,                                       !- Upper Limit Value
  Continuous,                             !- Numeric Type
  Temperature;                            !- Unit Type

OS:Surface,
  {bc37198c-f85c-4da3-a840-d750ce9933c7}, !- Handle
  Roof1,                                  !- Name
  RoofCeiling,                            !- Surface Type
  {90368786-5af5-4c45-a5b3-7332ff5a5741}, !- Construction Name
  {fd1ebf66-c94b-45cf-8f20-57bd7053d698}, !- Space Name
  Outdoors,                               !- Outside Boundary Condition
  ,                                       !- Outside Boundary Condition Object
  SunExposed,                             !- Sun Exposure
  WindExposed,                            !- Wind Exposure
  ,                                       !- View Factor to Ground
  ,                                       !- Number of Vertices
  -26.9347048849634, 58.0557891618865, 2.4384, !- X,Y,Z Vertex 1 {m}
  -26.9347048849634, 46.7895631136661, 8.0715130241102, !- X,Y,Z Vertex 2 {m}
  -14.3386812381136, 46.7895631136661, 8.0715130241102, !- X,Y,Z Vertex 3 {m}
  -14.3386812381136, 58.0557891618865, 2.4384; !- X,Y,Z Vertex 4 {m}

OS:AdditionalProperties,
  {3cce4ef6-7b47-4979-a66c-27b5f6d0e8e3}, !- Handle
  {bc37198c-f85c-4da3-a840-d750ce9933c7}, !- Object Name
  Length,                                 !- Feature Name 1
  Double,                                 !- Feature Data Type 1
  41.325536899113608,                     !- Feature Value 1
  Width,                                  !- Feature Name 2
  Double,                                 !- Feature Data Type 2
  41.325536899113601,                     !- Feature Value 2
  Azimuth,                                !- Feature Name 3
  Integer,                                !- Feature Data Type 3
  0,                                      !- Feature Value 3
  Tilt,                                   !- Feature Name 4
  Double,                                 !- Feature Data Type 4
  0.5,                                    !- Feature Value 4
  SurfaceType,                            !- Feature Name 5
  String,                                 !- Feature Data Type 5
  Roof;                                   !- Feature Value 5

OS:ThermalZone,
  {ba896805-8a7e-4ccc-a965-876da5044af6}, !- Handle
  attic - vented,                         !- Name
  1,                                      !- Multiplier
  ,                                       !- Ceiling Height {m}
  356.390921899745,                       !- Volume {m3}
  ,                                       !- Floor Area {m2}
  ,                                       !- Zone Inside Convection Algorithm
  ,                                       !- Zone Outside Convection Algorithm
  ,                                       !- Zone Conditioning Equipment List Name
  {ea9041c5-42ec-4922-86bf-14624e9082d5}, !- Zone Air Inlet Port List
  {9defb3b3-d25d-4901-ac31-8fdf42d42273}, !- Zone Air Exhaust Port List
  {4291d06f-e6ce-46e9-8508-273ef55d348e}, !- Zone Air Node Name
  {21f93685-e185-49d2-8192-80cca91642fb}, !- Zone Return Air Port List
  ,                                       !- Primary Daylighting Control Name
  ,                                       !- Fraction of Zone Controlled by Primary Daylighting Control
  ,                                       !- Secondary Daylighting Control Name
  ,                                       !- Fraction of Zone Controlled by Secondary Daylighting Control
  ,                                       !- Illuminance Map Name
  ,                                       !- Group Rendering Name
  ,                                       !- Thermostat Name
  No;                                     !- Use Ideal Air Loads

OS:Node,
  {12041f83-2253-4965-9827-5623699f5b82}, !- Handle
  Node 2,                                 !- Name
  {4291d06f-e6ce-46e9-8508-273ef55d348e}, !- Inlet Port
  ;                                       !- Outlet Port

OS:Connection,
  {4291d06f-e6ce-46e9-8508-273ef55d348e}, !- Handle
  {ba896805-8a7e-4ccc-a965-876da5044af6}, !- Source Object
  11,                                     !- Outlet Port
  {12041f83-2253-4965-9827-5623699f5b82}, !- Target Object
  2;                                      !- Inlet Port

OS:PortList,
  {ea9041c5-42ec-4922-86bf-14624e9082d5}, !- Handle
  {ba896805-8a7e-4ccc-a965-876da5044af6}; !- HVAC Component

OS:PortList,
  {9defb3b3-d25d-4901-ac31-8fdf42d42273}, !- Handle
  {ba896805-8a7e-4ccc-a965-876da5044af6}; !- HVAC Component

OS:PortList,
  {21f93685-e185-49d2-8192-80cca91642fb}, !- Handle
  {ba896805-8a7e-4ccc-a965-876da5044af6}; !- HVAC Component

OS:Sizing:Zone,
  {a0baeb16-31f2-41a8-8644-9760ee7e73d0}, !- Handle
  {ba896805-8a7e-4ccc-a965-876da5044af6}, !- Zone or ZoneList Name
  SupplyAirTemperature,                   !- Zone Cooling Design Supply Air Temperature Input Method
  14,                                     !- Zone Cooling Design Supply Air Temperature {C}
  11.11,                                  !- Zone Cooling Design Supply Air Temperature Difference {deltaC}
  SupplyAirTemperature,                   !- Zone Heating Design Supply Air Temperature Input Method
  40,                                     !- Zone Heating Design Supply Air Temperature {C}
  11.11,                                  !- Zone Heating Design Supply Air Temperature Difference {deltaC}
  0.0085,                                 !- Zone Cooling Design Supply Air Humidity Ratio {kg-H2O/kg-air}
  0.008,                                  !- Zone Heating Design Supply Air Humidity Ratio {kg-H2O/kg-air}
  ,                                       !- Zone Heating Sizing Factor
  ,                                       !- Zone Cooling Sizing Factor
  DesignDay,                              !- Cooling Design Air Flow Method
  ,                                       !- Cooling Design Air Flow Rate {m3/s}
  ,                                       !- Cooling Minimum Air Flow per Zone Floor Area {m3/s-m2}
  ,                                       !- Cooling Minimum Air Flow {m3/s}
  ,                                       !- Cooling Minimum Air Flow Fraction
  DesignDay,                              !- Heating Design Air Flow Method
  ,                                       !- Heating Design Air Flow Rate {m3/s}
  ,                                       !- Heating Maximum Air Flow per Zone Floor Area {m3/s-m2}
  ,                                       !- Heating Maximum Air Flow {m3/s}
  ,                                       !- Heating Maximum Air Flow Fraction
  No,                                     !- Account for Dedicated Outdoor Air System
  NeutralSupplyAir,                       !- Dedicated Outdoor Air System Control Strategy
  autosize,                               !- Dedicated Outdoor Air Low Setpoint Temperature for Design {C}
  autosize,                               !- Dedicated Outdoor Air High Setpoint Temperature for Design {C}
  Sensible Load Only No Latent Load,      !- Zone Load Sizing Method
  HumidityRatioDifference,                !- Zone Latent Cooling Design Supply Air Humidity Ratio Input Method
  ,                                       !- Zone Dehumidification Design Supply Air Humidity Ratio {kgWater/kgDryAir}
  0.005,                                  !- Zone Cooling Design Supply Air Humidity Ratio Difference {kgWater/kgDryAir}
  HumidityRatioDifference,                !- Zone Latent Heating Design Supply Air Humidity Ratio Input Method
  ,                                       !- Zone Humidification Design Supply Air Humidity Ratio {kgWater/kgDryAir}
  0.005,                                  !- Zone Humidification Design Supply Air Humidity Ratio Difference {kgWater/kgDryAir}
  ,                                       !- Zone Humidistat Dehumidification Set Point Schedule Name
  ,                                       !- Zone Humidistat Humidification Set Point Schedule Name
  ,                                       !- Design Zone Air Distribution Effectiveness in Cooling Mode
  ,                                       !- Design Zone Air Distribution Effectiveness in Heating Mode
  ,                                       !- Design Zone Secondary Recirculation Fraction {dimensionless}
  ,                                       !- Design Minimum Zone Ventilation Efficiency {dimensionless}
  Coincident;                             !- Sizing Option

OS:ZoneHVAC:EquipmentList,
  {83b3f6bf-fb9f-42f5-8b1c-9619be10028d}, !- Handle
  Zone HVAC Equipment List 2,             !- Name
  {ba896805-8a7e-4ccc-a965-876da5044af6}; !- Thermal Zone

OS:AdditionalProperties,
  {ae12ef5a-0a66-4238-b7ef-587529008e3c}, !- Handle
  {ba896805-8a7e-4ccc-a965-876da5044af6}, !- Object Name
  ObjectType,                             !- Feature Name 1
  String,                                 !- Feature Data Type 1
  attic - vented;                         !- Feature Value 1

OS:Space,
  {fd1ebf66-c94b-45cf-8f20-57bd7053d698}, !- Handle
  attic - vented 1,                       !- Name
  ,                                       !- Space Type Name
  ,                                       !- Default Construction Set Name
  ,                                       !- Default Schedule Set Name
  ,                                       !- Direction of Relative North {deg}
  ,                                       !- X Origin {m}
  ,                                       !- Y Origin {m}
  ,                                       !- Z Origin {m}
  ,                                       !- Building Story Name
  {ba896805-8a7e-4ccc-a965-876da5044af6}, !- Thermal Zone Name
  ,                                       !- Part of Total Floor Area
  ,                                       !- Design Specification Outdoor Air Object Name
  ,                                       !- Building Unit Name
  356.390921899745;                       !- Volume {m3}

OS:Material,
  {1edd84c2-bf93-467b-b406-9847ceaeb58f}, !- Handle
  asphalt or fiberglass shingles,         !- Name
  Rough,                                  !- Roughness
  0.00635,                                !- Thickness {m}
  0.162714,                               !- Conductivity {W/m-K}
  1121.4,                                 !- Density {kg/m3}
  1465.45,                                !- Specific Heat {J/kg-K}
  0.9,                                    !- Thermal Absorptance
  0.85,                                   !- Solar Absorptance