
OS:Version,
  {df0c0e92-2984-4b92-851a-2e17817ac243}, !- Handle
  3.9.0;                                  !- Version Identifier

OS:SimulationControl,
  {55080fd5-dc80-4710-b05e-7c1a95059c17}, !- Handle
  ,                                       !- Do Zone Sizing Calculation
  ,                                       !- Do System Sizing Calculation
  ,                                       !- Do Plant Sizing Calculation
  No;                                     !- Run Simulation for Sizing Periods

OS:Timestep,
  {d4ad9c30-64f2-43d5-939f-3c5f0ac9aca6}, !- Handle
  1;                                      !- Number of Timesteps per Hour

OS:ShadowCalculation,
  {6e76d824-72f6-4392-9328-c2d1041bad4e}, !- Handle
  PolygonClipping,                        !- Shading Calculation Method
  ,                                       !- Shading Calculation Update Frequency Method
  20,                                     !- Shading Calculation Update Frequency
  200,                                    !- Maximum Figures in Shadow Overlap Calculations
  ,                                       !- Polygon Clipping Algorithm
  512,                                    !- Pixel Counting Resolution
  ,                                       !- Sky Diffuse Modeling Algorithm
  No,                                     !- Output External Shading Calculation Results
  No,                                     !- Disable Self-Shading Within Shading Zone Groups
  No;                                     !- Disable Self-Shading From Shading Zone Groups to Other Zones

OS:SurfaceConvectionAlgorithm:Outside,
  {52df3ecb-8c53-4cd6-9b33-a95a725fa01b}, !- Handle
  DOE-2;                                  !- Algorithm

OS:SurfaceConvectionAlgorithm:Inside,
  {18693b87-946f-4248-aa7a-016309e0daf9}, !- Handle
  TARP;                                   !- Algorithm

OS:ZoneCapacitanceMultiplier:ResearchSpecial,
  {fdb74a4b-af8c-4afc-8703-ac3e6658fbc6}, !- Handle
  7,                                      !- Temperature Capacity Multiplier
  15,                                     !- Humidity Capacity Multiplier
  ;                                       !- Carbon Dioxide Capacity Multiplier

OS:ConvergenceLimits,
  {aa8904fe-d2e0-4611-8f7d-fbfcc052c960}, !- Handle
  0;                                      !- Minimum System Timestep {minutes}

OS:RunPeriod,
  {c64a804f-1efa-4e9a-890a-485f5581e175}, !- Handle
  Run Period 1,                           !- Name
  1,                                      !- Begin Month
  1,                                      !- Begin Day of Month
  12,                                     !- End Month
  31,                                     !- End Day of Month
  ,                                       !- Use Weather File Holidays and Special Days
  ,                                       !- Use Weather File Daylight Saving Period
  ,                                       !- Apply Weekend Holiday Rule
  ,                                       !- Use Weather File Rain Indicators
  ,                                       !- Use Weather File Snow Indicators
  ;                                       !- Number of Times Runperiod to be Repeated

OS:PerformancePrecisionTradeoffs,
  {d61d9f40-5da0-45e9-9cc8-1385b4ced7d6}, !- Handle
  ,                                       !- Use Coil Direct Solutions
  CarrollMRT;                             !- Zone Radiant Exchange Algorithm

OS:WeatherFile,
  {d1111675-483f-485a-9378-ab1ff87143c9}, !- Handle
  Buffalo Niagara Intl Ap,                !- City
  NY,                                     !- State Province Region
  USA,                                    !- Country
  TMY3,                                   !- Data Source
  725280,                                 !- WMO Number
  42.93,                                  !- Latitude {deg}
  -78.73,                                 !- Longitude {deg}
  -5,                                     !- Time Zone {hr}
  215,                                    !- Elevation {m}
  /Users/nmoore/github/urbanopt-example-geojson-project/example_project/weather/USA_NY_Buffalo-Greater.Buffalo.Intl.AP.725280_TMY3.epw, !- Url
  6B50E0FF,                               !- Checksum
  ,                                       !- Start Date Actual Year
  Sunday;                                 !- Start Day of Week

OS:YearDescription,
  {9d466c92-a760-4899-8b32-1cfa92f424a4}, !- Handle
  2007,                                   !- Calendar Year
  ,                                       !- Day of Week for Start Day
  ;                                       !- Is Leap Year

OS:Site,
  {3080d2f7-dce7-45bb-957c-09f6cac576fd}, !- Handle
  Buffalo Niagara Intl Ap_NY,             !- Name
  42.93,                                  !- Latitude {deg}
  -78.73,                                 !- Longitude {deg}
  -5,                                     !- Time Zone {hr}
  215,                                    !- Elevation {m}
  Suburbs,                                !- Terrain
  Yes;                                    !- Keep Site Location Information

OS:RunPeriodControl:DaylightSavingTime,
  {69489ae9-7b39-449d-b546-2472123866d2}, !- Handle
  Mar 12,                                 !- Start Date
  Nov 5;                                  !- End Date

OS:Site:GroundTemperature:Shallow,
  {14325d8b-e80a-4b46-bcfe-d025ba3ec989}, !- Handle
  4.30207395723828,                       !- January Surface Ground Temperature {C}
  2.29327249652502,                       !- February Surface Ground Temperature {C}
  2.13240047156047,                       !- March Surface Ground Temperature {C}
  3.08567940719286,                       !- April Surface Ground Temperature {C}
  6.91256312497526,                       !- May Surface Ground Temperature {C}
  10.7216195949507,                       !- June Surface Ground Temperature {C}
  14.0238679822574,                       !- July Surface Ground Temperature {C}
  16.1157611184724,                       !- August Surface Ground Temperature {C}
  16.2934789303462,                       !- September Surface Ground Temperature {C}
  14.5920754632847,                       !- October Surface Ground Temperature {C}
  11.374036348653,                        !- November Surface Ground Temperature {C}
  7.68182621661674;                       !- December Surface Ground Temperature {C}

OS:ThermalZone,
  {a5e83646-b734-4a1e-9a50-09c8d056489e}, !- Handle
  conditioned space,                      !- Name
  1,                                      !- Multiplier
  ,                                       !- Ceiling Height {m}
  692.06373070848,                        !- Volume {m3}
  ,                                       !- Floor Area {m2}
  ,                                       !- Zone Inside Convection Algorithm
  ,                                       !- Zone Outside Convection Algorithm
  ,                                       !- Zone Conditioning Equipment List Name
  {a1516d45-f36c-4fd0-a5b0-f02243d3ea2b}, !- Zone Air Inlet Port List
  {914cd415-1661-47a8-bd6f-eed1cdc63043}, !- Zone Air Exhaust Port List
  {3dbff302-cf47-408d-b912-660157a75c62}, !- Zone Air Node Name
  {204477d9-31a1-4331-bf60-bd14c17bd078}, !- Zone Return Air Port List
  ,                                       !- Primary Daylighting Control Name
  ,                                       !- Fraction of Zone Controlled by Primary Daylighting Control
  ,                                       !- Secondary Daylighting Control Name
  ,                                       !- Fraction of Zone Controlled by Secondary Daylighting Control
  ,                                       !- Illuminance Map Name
  ,                                       !- Group Rendering Name
  {5e1f3769-3bf9-446f-8f95-d643de94867c}, !- Thermostat Name
  No;                                     !- Use Ideal Air Loads

OS:Node,
  {d87670d3-36b9-4104-b89e-f96b92f932a4}, !- Handle
  Node 1,                                 !- Name
  {3dbff302-cf47-408d-b912-660157a75c62}, !- Inlet Port
  ;                                       !- Outlet Port

OS:Connection,
  {3dbff302-cf47-408d-b912-660157a75c62}, !- Handle
  {a5e83646-b734-4a1e-9a50-09c8d056489e}, !- Source Object
  11,                                     !- Outlet Port
  {d87670d3-36b9-4104-b89e-f96b92f932a4}, !- Target Object
  2;                                      !- Inlet Port

OS:PortList,
  {a1516d45-f36c-4fd0-a5b0-f02243d3ea2b}, !- Handle
  {a5e83646-b734-4a1e-9a50-09c8d056489e}, !- HVAC Component
  {593b670d-f363-4c79-884c-aaf97954d5d9}; !- Port 1

OS:PortList,
  {914cd415-1661-47a8-bd6f-eed1cdc63043}, !- Handle
  {a5e83646-b734-4a1e-9a50-09c8d056489e}; !- HVAC Component

OS:PortList,
  {204477d9-31a1-4331-bf60-bd14c17bd078}, !- Handle
  {a5e83646-b734-4a1e-9a50-09c8d056489e}, !- HVAC Component
  {d42d76d4-68d7-4ce2-a5b6-5ce3aa2c95d1}; !- Port 1

OS:Sizing:Zone,
  {6b8e9ece-2d2a-48e0-8d9f-9286e106e244}, !- Handle
  {a5e83646-b734-4a1e-9a50-09c8d056489e}, !- Zone or ZoneList Name
  SupplyAirTemperature,                   !- Zone Cooling Design Supply Air Temperature Input Method
  14,                                     !- Zone Cooling Design Supply Air Temperature {C}
  11.11,                                  !- Zone Cooling Design Supply Air Temperature Difference {deltaC}
  SupplyAirTemperature,                   !- Zone Heating Design Supply Air Temperature Input Method
  40,                                     !- Zone Heating Design Supply Air Temperature {C}
  11.11,                                  !- Zone Heating Design Supply Air Temperature Difference {deltaC}
  0.0085,                                 !- Zone Cooling Design Supply Air Humidity Ratio {kg-H2O/kg-air}
  0.008,                                  !- Zone Heating Design Supply Air Humidity Ratio {kg-H2O/kg-air}
  ,                                       !- Zone Heating Sizing Factor
  ,                                       !- Zone Cooling Sizing Factor
  DesignDay,                              !- Cooling Design Air Flow Method
  ,                                       !- Cooling Design Air Flow Rate {m3/s}
  ,                                       !- Cooling Minimum Air Flow per Zone Floor Area {m3/s-m2}
  ,                                       !- Cooling Minimum Air Flow {m3/s}
  ,                                       !- Cooling Minimum Air Flow Fraction
  DesignDay,                              !- Heating Design Air Flow Method
  ,                                       !- Heating Design Air Flow Rate {m3/s}
  ,                                       !- Heating Maximum Air Flow per Zone Floor Area {m3/s-m2}
  ,                                       !- Heating Maximum Air Flow {m3/s}
  ,                                       !- Heating Maximum Air Flow Fraction
  No,                                     !- Account for Dedicated Outdoor Air System
  NeutralSupplyAir,                       !- Dedicated Outdoor Air System Control Strategy
  autosize,                               !- Dedicated Outdoor Air Low Setpoint Temperature for Design {C}
  autosize,                               !- Dedicated Outdoor Air High Setpoint Temperature for Design {C}
  Sensible Load Only No Latent Load,      !- Zone Load Sizing Method
  HumidityRatioDifference,                !- Zone Latent Cooling Design Supply Air Humidity Ratio Input Method
  ,                                       !- Zone Dehumidification Design Supply Air Humidity Ratio {kgWater/kgDryAir}
  0.005,                                  !- Zone Cooling Design Supply Air Humidity Ratio Difference {kgWater/kgDryAir}
  HumidityRatioDifference,                !- Zone Latent Heating Design Supply Air Humidity Ratio Input Method
  ,                                       !- Zone Humidification Design Supply Air Humidity Ratio {kgWater/kgDryAir}
  0.005,                                  !- Zone Humidification Design Supply Air Humidity Ratio Difference {kgWater/kgDryAir}
  ,                                       !- Zone Humidistat Dehumidification Set Point Schedule Name
  ,                                       !- Zone Humidistat Humidification Set Point Schedule Name
  ,                                       !- Design Zone Air Distribution Effectiveness in Cooling Mode
  ,                                       !- Design Zone Air Distribution Effectiveness in Heating Mode
  ,                                       !- Design Zone Secondary Recirculation Fraction {dimensionless}
  ,                                       !- Design Minimum Zone Ventilation Efficiency {dimensionless}
  Coincident;                             !- Sizing Option

OS:ZoneHVAC:EquipmentList,
  {aa8efd79-90d6-4c99-8df6-d816cb09af33}, !- Handle
  Zone HVAC Equipment List 1,             !- Name
  {a5e83646-b734-4a1e-9a50-09c8d056489e}, !- Thermal Zone
  ,                                       !- Load Distribution Scheme
  {ececd11d-a57b-46b4-b9d5-d73a69b0188d}, !- Zone Equipment 1
  1,                                      !- Zone Equipment Cooling Sequence 1
  1,                                      !- Zone Equipment Heating or No-Load Sequence 1
  {6b92cccb-19f0-4669-9849-202ce53b65d0}, !- Zone Equipment Sequential Cooling Fraction Schedule Name 1
  {75645301-d345-4b58-86aa-3ff698802e6b}; !- Zone Equipment Sequential Heating Fraction Schedule Name 1

OS:AdditionalProperties,
  {218a9b4e-fdee-4f2e-8273-7d1c34f0bf98}, !- Handle
  {a5e83646-b734-4a1e-9a50-09c8d056489e}, !- Object Name
  ObjectType,                             !- Feature Name 1
  String,                                 !- Feature Data Type 1
  conditioned space;                      !- Feature Value 1

OS:Space,
  {6da0d51e-121d-4065-8567-01328a3f0702}, !- Handle
  conditioned space 1,                    !- Name
  ,                                       !- Space Type Name
  ,                                       !- Default Construction Set Name
  ,                                       !- Default Schedule Set Name
  ,                                       !- Direction of Relative North {deg}
  ,                                       !- X Origin {m}
  ,                                       !- Y Origin {m}
  ,                                       !- Z Origin {m}
  ,                                       !- Building Story Name
  {a5e83646-b734-4a1e-9a50-09c8d056489e}, !- Thermal Zone Name
  ,                                       !- Part of Total Floor Area
  ,                                       !- Design Specification Outdoor Air Object Name
  ,                                       !- Building Unit Name
  692.06373070848;                        !- Volume {m3}

OS:Schedule:Ruleset,
  {4563c6c1-f632-484c-90cb-becd2415169f}, !- Handle
  heating setpoint,                       !- Name
  {7d2c3255-af29-4abc-8eb1-548fd329f1dd}, !- Schedule Type Limits Name
  {a74274c2-cf43-47ea-bf93-2eb525d111ad}; !- Default Day Schedule Name

OS:Schedule:Day,
  {a74274c2-cf43-47ea-bf93-2eb525d111ad}, !- Handle
  heating setpoint default day,           !- Name
  {7d2c3255-af29-4abc-8eb1-548fd329f1dd}, !- Schedule Type Limits Name
  ,                                       !- Interpolate to Timestep
  24,                                     !- Hour 1
  0,                                      !- Minute 1
  0;                                      !- Value Until Time 1

OS:Schedule:Rule,
  {a921d496-bd3e-4caa-a1c7-bec9d9ce25d8}, !- Handle
  heating setpoint allday rule,           !- Name
  {4563c6c1-f632-484c-90cb-becd2415169f}, !- Schedule Ruleset Name
  0,                                      !- Rule Order
  {57ae5a14-e07c-468a-9e36-165de2da48b1}, !- Day Schedule Name
  Yes,                                    !- Apply Sunday
  Yes,                                    !- Apply Monday
  Yes,                                    !- Apply Tuesday
  Yes,                                    !- Apply Wednesday
  Yes,                                    !- Apply Thursday
  Yes,                                    !- Apply Friday
  Yes,                                    !- Apply Saturday
  DateRange,                              !- Date Specification Type
  1,                                      !- Start Month
  1,                                      !- Start Day
  12,                                     !- End Month
  31;                                     !- End Day

OS:Schedule:Day,
  {57ae5a14-e07c-468a-9e36-165de2da48b1}, !- Handle
  heating setpoint day,                   !- Name
  {7d2c3255-af29-4abc-8eb1-548fd329f1dd}, !- Schedule Type Limits Name
  ,                                       !- Interpolate to Timestep
  24,                                     !- Hour 1
  0,                                      !- Minute 1
  20;                                     !- Value Until Time 1

OS:Schedule:Ruleset,
  {17011b78-68d1-4b59-8285-9bf96a0b3fd6}, !- Handle
  cooling setpoint,                       !- Name
  {7d2c3255-af29-4abc-8eb1-548fd329f1dd}, !- Schedule Type Limits Name
  {172ecb70-1425-4e48-9c38-ba0ed6b2b932}; !- Default Day Schedule Name

OS:Schedule:Day,
  {172ecb70-1425-4e48-9c38-ba0ed6b2b932}, !- Handle
  cooling setpoint default day,           !- Name
  {7d2c3255-af29-4abc-8eb1-548fd329f1dd}, !- Schedule Type Limits Name
  ,                                       !- Interpolate to Timestep
  24,                                     !- Hour 1
  0,                                      !- Minute 1
  0;                                      !- Value Until Time 1

OS:Schedule:Rule,
  {8ca6e2db-c83c-4b30-96b2-89d9e246821e}, !- Handle
  cooling setpoint allday rule,           !- Name
  {17011b78-68d1-4b59-8285-9bf96a0b3fd6}, !- Schedule Ruleset Name
  0,                                      !- Rule Order
  {230e1895-8224-4b5b-8bc2-cb54db352a2b}, !- Day Schedule Name
  Yes,                                    !- Apply Sunday
  Yes,                                    !- Apply Monday
  Yes,                                    !- Apply Tuesday
  Yes,                                    !- Apply Wednesday
  Yes,                                    !- Apply Thursday
  Yes,                                    !- Apply Friday
  Yes,                                    !- Apply Saturday
  DateRange,                              !- Date Specification Type
  1,                                      !- Start Month
  1,                                      !- Start Day
  12,                                     !- End Month
  31;                                     !- End Day

OS:Schedule:Day,
  {230e1895-8224-4b5b-8bc2-cb54db352a2b}, !- Handle
  cooling setpoint day,                   !- Name
  {7d2c3255-af29-4abc-8eb1-548fd329f1dd}, !- Schedule Type Limits Name
  ,                                       !- Interpolate to Timestep
  24,                                     !- Hour 1
  0,                                      !- Minute 1
  25.5555555555556;                       !- Value Until Time 1

OS:ThermostatSetpoint:DualSetpoint,
  {5e1f3769-3bf9-446f-8f95-d643de94867c}, !- Handle
  conditioned space temperature setpoint, !- Name
  {4563c6c1-f632-484c-90cb-becd2415169f}, !- Heating Setpoint Temperature Schedule Name
  {17011b78-68d1-4b59-8285-9bf96a0b3fd6}, !- Cooling Setpoint Temperature Schedule Name
  0;                                      !- Temperature Difference Between Cutout And Setpoint {deltaC}

OS:ScheduleTypeLimits,
  {7d2c3255-af29-4abc-8eb1-548fd329f1dd}, !- Handle
  Temperature,                            !- Name
  ,                                       !- Lower Limit Value
  ,                                       !- Upper Limit Value
  Continuous,                             !- Numeric Type
  Temperature;                            !- Unit Type

OS:Surface,
  {d734b45e-9d5f-4eea-90ad-c427453e3888}, !- Handle
  Roof1,                                  !- Name
  RoofCeiling,                            !- Surface Type
  {ecc0b008-d6ee-42df-8b46-94b983b72504}, !- Construction Name
  {0e3c0a5f-791d-48c0-ab68-48253dba5ac7}, !- Space Name
  Outdoors,                               !- Outside Boundary Condition
  ,                                       !- Outside Boundary Condition Object
  SunExposed,                             !- Sun Exposure
  WindExposed,                            !- Wind Exposure
  ,                                       !- View Factor to Ground
  ,                                       !- Number of Vertices
  -26.9347048849634, 58.0557891618865, 2.4384, !- X,Y,Z Vertex 1 {m}
  -26.9347048849634, 46.7895631136661, 8.0715130241102, !- X,Y,Z Vertex 2 {m}
  -14.3386812381136, 46.7895631136661, 8.0715130241102, !- X,Y,Z Vertex 3 {m}
  -14.3386812381136, 58.0557891618865, 2.4384; !- X,Y,Z Vertex 4 {m}

OS:AdditionalProperties,
  {787d3d4e-13c5-42bb-a09f-7a5cd5ad483e}, !- Handle
  {d734b45e-9d5f-4eea-90ad-c427453e3888}, !- Object Name
  Length,                                 !- Feature Name 1
  Double,                                 !- Feature Data Type 1
  41.325536899113608,                     !- Feature Value 1
  Width,                                  !- Feature Name 2
  Double,                                 !- Feature Data Type 2
  41.325536899113601,                     !- Feature Value 2
  Azimuth,                                !- Feature Name 3
  Integer,                                !- Feature Data Type 3
  0,                                      !- Feature Value 3
  Tilt,                                   !- Feature Name 4
  Double,                                 !- Feature Data Type 4
  0.5,                                    !- Feature Value 4
  SurfaceType,                            !- Feature Name 5
  String,                                 !- Feature Data Type 5
  Roof;                                   !- Feature Value 5

OS:ThermalZone,
  {3a3f65bb-903f-4b4f-a024-d797bc35a676}, !- Handle
  attic - vented,                         !- Name
  1,                                      !- Multiplier
  ,                                       !- Ceiling Height {m}
  356.389957095237,                       !- Volume {m3}
  ,                                       !- Floor Area {m2}
  ,                                       !- Zone Inside Convection Algorithm
  ,                                       !- Zone Outside Convection Algorithm
  ,                                       !- Zone Conditioning Equipment List Name
  {6050a6b8-b708-4fae-949e-d2e7d6a40b7d}, !- Zone Air Inlet Port List
  {f734363b-ccd0-4bfc-8e6a-8f787f94e127}, !- Zone Air Exhaust Port List
  {5ba44c5b-3e5e-4c6c-9d60-41a54e483d3e}, !- Zone Air Node Name
  {dbd4bc32-f0fc-4db2-8c89-a73ca36fc26d}, !- Zone Return Air Port List
  ,                                       !- Primary Daylighting Control Name
  ,                                       !- Fraction of Zone Controlled by Primary Daylighting Control
  ,                                       !- Secondary Daylighting Control Name
  ,                                       !- Fraction of Zone Controlled by Secondary Daylighting Control
  ,                                       !- Illuminance Map Name
  ,                                       !- Group Rendering Name
  ,                                       !- Thermostat Name
  No;                                     !- Use Ideal Air Loads

OS:Node,
  {6b7153d5-4353-412f-896d-41dddf3cab27}, !- Handle
  Node 2,                                 !- Name
  {5ba44c5b-3e5e-4c6c-9d60-41a54e483d3e}, !- Inlet Port
  ;                                       !- Outlet Port

OS:Connection,
  {5ba44c5b-3e5e-4c6c-9d60-41a54e483d3e}, !- Handle
  {3a3f65bb-903f-4b4f-a024-d797bc35a676}, !- Source Object
  11,                                     !- Outlet Port
  {6b7153d5-4353-412f-896d-41dddf3cab27}, !- Target Object
  2;                                      !- Inlet Port

OS:PortList,
  {6050a6b8-b708-4fae-949e-d2e7d6a40b7d}, !- Handle
  {3a3f65bb-903f-4b4f-a024-d797bc35a676}; !- HVAC Component

OS:PortList,
  {f734363b-ccd0-4bfc-8e6a-8f787f94e127}, !- Handle
  {3a3f65bb-903f-4b4f-a024-d797bc35a676}; !- HVAC Component

OS:PortList,
  {dbd4bc32-f0fc-4db2-8c89-a73ca36fc26d}, !- Handle
  {3a3f65bb-903f-4b4f-a024-d797bc35a676}; !- HVAC Component

OS:Sizing:Zone,
  {e0427380-2bf0-429b-bff6-88fb26e0d294}, !- Handle
  {3a3f65bb-903f-4b4f-a024-d797bc35a676}, !- Zone or ZoneList Name
  SupplyAirTemperature,                   !- Zone Cooling Design Supply Air Temperature Input Method
  14,                                     !- Zone Cooling Design Supply Air Temperature {C}
  11.11,                                  !- Zone Cooling Design Supply Air Temperature Difference {deltaC}
  SupplyAirTemperature,                   !- Zone Heating Design Supply Air Temperature Input Method
  40,                                     !- Zone Heating Design Supply Air Temperature {C}
  11.11,                                  !- Zone Heating Design Supply Air Temperature Difference {deltaC}
  0.0085,                                 !- Zone Cooling Design Supply Air Humidity Ratio {kg-H2O/kg-air}
  0.008,                                  !- Zone Heating Design Supply Air Humidity Ratio {kg-H2O/kg-air}
  ,                                       !- Zone Heating Sizing Factor
  ,                                       !- Zone Cooling Sizing Factor
  DesignDay,                              !- Cooling Design Air Flow Method
  ,                                       !- Cooling Design Air Flow Rate {m3/s}
  ,                                       !- Cooling Minimum Air Flow per Zone Floor Area {m3/s-m2}
  ,                                       !- Cooling Minimum Air Flow {m3/s}
  ,                                       !- Cooling Minimum Air Flow Fraction
  DesignDay,                              !- Heating Design Air Flow Method
  ,                                       !- Heating Design Air Flow Rate {m3/s}
  ,                                       !- Heating Maximum Air Flow per Zone Floor Area {m3/s-m2}
  ,                                       !- Heating Maximum Air Flow {m3/s}
  ,                                       !- Heating Maximum Air Flow Fraction
  No,                                     !- Account for Dedicated Outdoor Air System
  NeutralSupplyAir,                       !- Dedicated Outdoor Air System Control Strategy
  autosize,                               !- Dedicated Outdoor Air Low Setpoint Temperature for Design {C}
  autosize,                               !- Dedicated Outdoor Air High Setpoint Temperature for Design {C}
  Sensible Load Only No Latent Load,      !- Zone Load Sizing Method
  HumidityRatioDifference,                !- Zone Latent Cooling Design Supply Air Humidity Ratio Input Method
  ,                                       !- Zone Dehumidification Design Supply Air Humidity Ratio {kgWater/kgDryAir}
  0.005,                                  !- Zone Cooling Design Supply Air Humidity Ratio Difference {kgWater/kgDryAir}
  HumidityRatioDifference,                !- Zone Latent Heating Design Supply Air Humidity Ratio Input Method
  ,                                       !- Zone Humidification Design Supply Air Humidity Ratio {kgWater/kgDryAir}
  0.005,                                  !- Zone Humidification Design Supply Air Humidity Ratio Difference {kgWater/kgDryAir}
  ,                                       !- Zone Humidistat Dehumidification Set Point Schedule Name
  ,                                       !- Zone Humidistat Humidification Set Point Schedule Name
  ,                                       !- Design Zone Air Distribution Effectiveness in Cooling Mode
  ,                                       !- Design Zone Air Distribution Effectiveness in Heating Mode
  ,                                       !- Design Zone Secondary Recirculation Fraction {dimensionless}
  ,                                       !- Design Minimum Zone Ventilation Efficiency {dimensionless}
  Coincident;                             !- Sizing Option

OS:ZoneHVAC:EquipmentList,
  {52ec8d6d-be01-4e62-a775-cbd85c077907}, !- Handle
  Zone HVAC Equipment List 2,             !- Name
  {3a3f65bb-903f-4b4f-a024-d797bc35a676}; !- Thermal Zone

OS:AdditionalProperties,
  {935c5c02-3495-4768-bf5b-a7d8a9c38e58}, !- Handle
  {3a3f65bb-903f-4b4f-a024-d797bc35a676}, !- Object Name
  ObjectType,                             !- Feature Name 1
  String,                                 !- Feature Data Type 1
  attic - vented;                         !- Feature Value 1

OS:Space,
  {0e3c0a5f-791d-48c0-ab68-48253dba5ac7}, !- Handle
  attic - vented 1,                       !- Name
  ,                                       !- Space Type Name
  ,                                       !- Default Construction Set Name
  ,                                       !- Default Schedule Set Name
  ,                                       !- Direction of Relative North {deg}
  ,                                       !- X Origin {m}
  ,                                       !- Y Origin {m}
  ,                                       !- Z Origin {m}
  ,                                       !- Building Story Name
  {3a3f65bb-903f-4b4f-a024-d797bc35a676}, !- Thermal Zone Name
  ,                                       !- Part of Total Floor Area
  ,                                       !- Design Specification Outdoor Air Object Name
  ,                                       !- Building Unit Name
  356.389957095237;                       !- Volume {m3}

OS:Material,
  {6755902c-7c3e-4abd-943a-49066094a5bd}, !- Handle
  asphalt or fiberglass shingles,         !- Name
  Rough,                                  !- Roughness
  0.00635,                                !- Thickness {m}
  0.162714,                               !- Conductivity {W/m-K}
  1121.4,                                 !- Density {kg/m3}
  1465.45,                                !- Specific Heat {J/kg-K}
  0.9,                                    !- Thermal Absorptance
  0.85,                                   !- Solar Absorptance